@<TRIPOS>MOLECULE
16.6877019963
    70    72     1     0     0
SMALL
USER_CHARGES
****
Generated from the CSD

@<TRIPOS>ATOM
     1 C      105.4102  99.2781  82.2337   C.ar      1 RES1  30.7470
     2 N      106.5415  99.9477  81.9135   N.ar      1 RES1  30.7470
     3 C      106.5672 100.8627  80.9216   C.ar      1 RES1  30.7470
     4 C      105.3755 101.0922  80.2395   C.ar      1 RES1  29.2050
     5 C      104.2301 100.3979  80.5948   C.ar      1 RES1  32.3700
     6 N      104.2439  99.4925  81.5876   N.ar      1 RES1  30.7470
     7 N      103.2531 100.8279  79.7782   N.ar      1 RES1  32.3700
     8 C      103.7553 101.7460  78.9273   C.ar      1 RES1  31.5030
     9 N      105.0623 101.9120  79.2191   N.ar      1 RES1  31.2620
    10 C      101.9752 100.3567  79.7829   C.3       1 RES1  32.3700
    11 C      101.9243  98.8140  79.7699   C.3       1 RES1  27.7230
    12 C      100.7483  98.4732  80.7137   C.3       1 RES1  21.8730
    13 C      100.1535  99.8532  81.0661   C.3       1 RES1  22.7010
    14 O      101.2999 100.7035  80.9954   O.3       1 RES1  31.8690
    15 C       99.5171  99.8934  82.4691   C.3       1 RES1  21.3640
    16 O       98.6441  98.7705  82.6209   O.3       1 RES1  19.5530
    17 P       99.0877  97.4464  83.4014   P.3       1 RES1  22.2270
    18 O      100.5294  97.1788  83.1370   O.2       1 RES1  20.9800
    19 O       98.8803  97.6831  84.9704   O.3       1 RES1  11.1370
    20 O       98.2243  96.2030  82.8752   O.3       1 RES1  13.6090
    21 P       99.1254  94.9233  82.5332   P.3       1 RES1  21.8640
    22 O       99.9354  94.5242  83.7185   O.2       1 RES1  20.8510
    23 O      100.0974  95.2605  81.3068   O.3       1 RES1  13.6160
    24 O       98.1878  93.7015  82.0958   O.3       1 RES1  21.3360
    25 P       96.9013  93.5842  83.0415   P.3       1 RES1  20.7140
    26 O       97.1545  94.3359  84.3027   O.2       1 RES1  20.3310
    27 O       95.6217  94.2048  82.3077   O.3       1 RES1  32.4380
    28 O       96.6325  92.0475  83.3967   O.3       1 RES1  20.3410
    29 O       99.7845  97.6021  80.1084   O.3       1 RES1  27.8160
    30 O      101.7098  98.3311  78.4386   O.3       1 RES1  27.8160
    31 N      107.6974 101.5286  80.6012   N.pl3     1 RES1  32.0950
    32 H1     105.4412  98.5470  83.0334   H         1 RES1   0.0000
    33 H2     103.2090 102.2607  78.1449   H         1 RES1   0.0000
    34 H3     101.4004 100.7522  78.9313   H         1 RES1   0.0000
    35 H4     102.8596  98.4023  80.1809   H         1 RES1   0.0000
    36 H5     101.1520  98.0016  81.6225   H         1 RES1   0.0000
    37 H6      99.4241 100.1635  80.3021   H         1 RES1   0.0000
    38 H7      98.9554 100.8297  82.6037   H         1 RES1   0.0000
    39 H8     100.3145  99.8360  83.2234   H         1 RES1   0.0000
    40 H9      99.6895  97.9976  85.3564   H         1 RES1   0.0000
    41 H10    100.7566  94.5841  81.2121   H         1 RES1   0.0000
    42 H11     95.8251  94.3635  81.3935   H         1 RES1   0.0000
    43 H12     96.2539  91.6094  82.6436   H         1 RES1   0.0000
    44 H13    100.2125  96.9023  79.6286   H         1 RES1   0.0000
    45 H14    101.5387  97.3961  78.4498   H         1 RES1   0.0000
    46 H15    108.5703 101.3454  81.1170   H         1 RES1   0.0000
    47 H16    107.6869 102.2212  79.8389   H         1 RES1   0.0000
    48 ****   107.3801  99.7599  82.4248   Du        1 RES1  24.6300
    49 ****   103.4156  98.9925  81.8404   Du        1 RES1  30.7470
    50 ****   105.6907 102.5373  78.7563   Du        1 RES1  26.6380
    51 ****   101.8969 100.5476  81.7823   Du        1 RES1  32.3700
    52 ****   101.0197 101.6632  80.9746   Du        1 RES1  28.5050
    53 ****   100.9458  96.3263  83.4529   Du        1 RES1  19.2220
    54 ****   101.0805  97.8517  82.6435   Du        1 RES1  24.3780
    55 ****    98.6177  96.8214  85.4047   Du        1 RES1  17.7140
    56 ****    98.1589  98.3610  85.1118   Du        1 RES1  17.5360
    57 ****    99.9563  93.5681  84.0108   Du        1 RES1  18.1760
    58 ****   100.4580  95.2124  84.2217   Du        1 RES1  18.2040
    59 ****   100.5470  96.1379  81.4742   Du        1 RES1  20.9800
    60 ****    99.5595  95.3167  80.4657   Du        1 RES1  20.4810
    61 ****    97.1218  95.3354  84.3042   Du        1 RES1  19.2680
    62 ****    97.3570  93.8410  85.1477   Du        1 RES1  20.3310
    63 ****    95.3712  95.0671  82.7477   Du        1 RES1  19.8270
    64 ****    94.8572  93.5633  82.3722   Du        1 RES1  20.7140
    65 ****    95.9996  91.9898  84.1687   Du        1 RES1  20.7140
    66 ****    97.4960  91.6058  83.6399   Du        1 RES1  20.7140
    67 ****    99.2160  98.1309  79.4782   Du        1 RES1  20.0310
    68 ****    99.2088  97.2045  80.8229   Du        1 RES1  22.2270
    69 ****   102.5247  98.5107  77.8874   Du        1 RES1  23.6460
    70 ****   100.9255  98.8051  78.0382   Du        1 RES1  23.6460
@<TRIPOS>BOND
     1     1     2   ar
     2     2     3   ar
     3     3     4   ar
     4     4     5   ar
     5     5     6   ar
     6     1     6   ar
     7     5     7   ar
     8     7     8   ar
     9     8     9   ar
    10     4     9   ar
    11     7    10    1
    12    10    11    1
    13    11    12    1
    14    12    13    1
    15    13    14    1
    16    10    14    1
    17    13    15    1
    18    15    16    1
    19    16    17    1
    20    17    18    2
    21    17    19    1
    22    17    20    1
    23    20    21    1
    24    21    22    2
    25    21    23    1
    26    21    24    1
    27    24    25    1
    28    25    26    2
    29    25    27    1
    30    25    28    1
    31    12    29    1
    32    11    30    1
    33     3    31    1
    34     1    32    1
    35     8    33    1
    36    10    34    1
    37    11    35    1
    38    12    36    1
    39    13    37    1
    40    15    38    1
    41    15    39    1
    42    19    40    1
    43    23    41    1
    44    27    42    1
    45    28    43    1
    46    29    44    1
    47    30    45    1
    48    31    46    1
    49    31    47    1
    50     2    48    1
    51     6    49    1
    52     9    50    1
    53    14    51    1
    54    14    52    1
    55    18    53    1
    56    18    54    1
    57    19    55    1
    58    19    56    1
    59    22    57    1
    60    22    58    1
    61    23    59    1
    62    23    60    1
    63    26    61    1
    64    26    62    1
    65    27    63    1
    66    27    64    1
    67    28    65    1
    68    28    66    1
    69    29    67    1
    70    29    68    1
    71    30    69    1
    72    30    70    1
@<TRIPOS>SUBSTRUCTURE
     1 RES1        1 GROUP             0 ****  ****    0  
@<TRIPOS>MOLECULE
15.910702057
    70    72     1     0     0
SMALL
USER_CHARGES
****
Generated from the CSD

@<TRIPOS>ATOM
     1 C      104.9849  99.0562  82.1643   C.ar      1 RES1  30.7470
     2 N      106.2943  99.3660  82.0221   N.ar      1 RES1  30.7470
     3 C      106.7013 100.3767  81.2254   C.ar      1 RES1  30.7470
     4 C      105.7136 101.0924  80.5544   C.ar      1 RES1  30.7470
     5 C      104.3797 100.7582  80.7258   C.ar      1 RES1  32.3700
     6 N      104.0130  99.7435  81.5267   N.ar      1 RES1  30.7470
     7 N      103.6707 101.6136  79.9695   N.ar      1 RES1  32.3700
     8 C      104.5151 102.4486  79.3301   C.ar      1 RES1  32.3700
     9 N      105.7734 102.1294  79.6985   N.ar      1 RES1  26.6280
    10 C      102.3156 101.5892  79.8347   C.3       1 RES1  32.3700
    11 C      101.8698 100.8041  78.5828   C.3       1 RES1  31.1390
    12 C      100.6061 100.0460  79.0501   C.3       1 RES1  24.0510
    13 C      100.3720 100.5771  80.4804   C.3       1 RES1  24.9120
    14 O      101.7006 100.8775  80.9126   O.3       1 RES1  31.8690
    15 C       99.7075  99.5394  81.4060   C.3       1 RES1  21.5210
    16 O       99.8851  98.2332  80.8507   O.3       1 RES1  23.1880
    17 P       98.7563  97.5229  79.9672   P.3       1 RES1  20.9800
    18 O       97.6279  98.4723  79.7544   O.2       1 RES1  21.1340
    19 O       99.3857  97.1341  78.5483   O.3       1 RES1  27.8160
    20 O       98.2083  96.2310  80.7412   O.3       1 RES1   0.0000
    21 P       97.6809  96.5693  82.2157   P.3       1 RES1  20.9800
    22 O       96.9359  95.4097  82.7817   O.2       1 RES1  20.4810
    23 O       96.7228  97.8507  82.1648   O.3       1 RES1   0.1980
    24 O       98.9198  96.9193  83.1674   O.3       1 RES1  19.5950
    25 P       99.6923  95.5962  83.6317   P.3       1 RES1  20.4810
    26 O       99.3870  95.3326  85.0660   O.2       1 RES1  18.2440
    27 O       99.2157  94.3453  82.7546   O.3       1 RES1  19.0700
    28 O      101.2695  95.8073  83.4657   O.3       1 RES1  15.3660
    29 O       99.4776 100.2667  78.1947   O.3       1 RES1  23.8980
    30 O      101.5959 101.7010  77.5002   O.3       1 RES1  33.4300
    31 N      108.0085 100.6835  81.0822   N.pl3     1 RES1  19.6070
    32 H1     104.7076  98.2307  82.8098   H         1 RES1   0.0000
    33 H2     104.2362 103.2371  78.6402   H         1 RES1   0.0000
    34 H3     101.8992 102.6078  79.7992   H         1 RES1   0.0000
    35 H4     102.6490 100.0811  78.2938   H         1 RES1   0.0000
    36 H5     100.8352  98.9702  79.0881   H         1 RES1   0.0000
    37 H6      99.7807 101.5054  80.4535   H         1 RES1   0.0000
    38 H7      98.6354  99.7610  81.5154   H         1 RES1   0.0000
    39 H8     100.1901  99.5817  82.3925   H         1 RES1   0.0000
    40 H9     100.1836  96.6348  78.6781   H         1 RES1   0.0000
    41 H10     96.0221  97.7146  81.5390   H         1 RES1   0.0000
    42 H11     99.1589  94.6004  81.8414   H         1 RES1   0.0000
    43 H12    101.7221  95.4065  84.1984   H         1 RES1   0.0000
    44 H13     99.3922  99.5673  77.5569   H         1 RES1   0.0000
    45 H14    102.1252 101.4764  76.7431   H         1 RES1   0.0000
    46 H15    108.7256 100.1424  81.5867   H         1 RES1   0.0000
    47 H16    108.2894 101.4601  80.4668   H         1 RES1   0.0000
    48 ****   106.9780  98.8325  82.5200   Du        1 RES1  27.4490
    49 ****   103.0494  99.5046  81.6470   Du        1 RES1  30.2670
    50 ****   106.6077 102.5853  79.3886   Du        1 RES1  26.6280
    51 ****   102.2029 100.0340  81.1031   Du        1 RES1  31.9470
    52 ****   101.6781 101.4452  81.7355   Du        1 RES1  31.8690
    53 ****    97.1235  98.4638  78.8910   Du        1 RES1  21.1340
    54 ****    97.3751  99.1180  80.4749   Du        1 RES1  22.2910
    55 ****    99.5947  97.9680  78.0376   Du        1 RES1  20.4150
    56 ****    98.7290  96.5834  78.0330   Du        1 RES1  20.0310
    57 ****    95.9593  95.3033  82.5947   Du        1 RES1  19.8270
    58 ****    97.4125  94.7377  83.3486   Du        1 RES1  20.3310
    59 ****    97.2569  98.6511  81.8927   Du        1 RES1  22.2910
    60 ****    96.3298  98.0046  83.0714   Du        1 RES1  22.2910
    61 ****    99.4877  96.0634  85.7412   Du        1 RES1  18.2440
    62 ****    99.0814  94.4249  85.3536   Du        1 RES1  18.2440
    63 ****    98.3178  94.0395  83.0713   Du        1 RES1  21.8640
    64 ****    99.8751  93.5999  82.8518   Du        1 RES1  21.8640
    65 ****   101.4741  96.7859  83.4427   Du        1 RES1  18.2040
    66 ****   101.5746  95.3829  82.6132   Du        1 RES1  19.5080
    67 ****    99.5966 101.1353  77.7137   Du        1 RES1  23.0640
    68 ****    98.6477 100.3049  78.7513   Du        1 RES1  22.8670
    69 ****   101.8076 102.6359  77.7849   Du        1 RES1  30.6300
    70 ****   100.6281 101.6378  77.2564   Du        1 RES1  24.9290
@<TRIPOS>BOND
     1     1     2   ar
     2     2     3   ar
     3     3     4   ar
     4     4     5   ar
     5     5     6   ar
     6     1     6   ar
     7     5     7   ar
     8     7     8   ar
     9     8     9   ar
    10     4     9   ar
    11     7    10    1
    12    10    11    1
    13    11    12    1
    14    12    13    1
    15    13    14    1
    16    10    14    1
    17    13    15    1
    18    15    16    1
    19    16    17    1
    20    17    18    2
    21    17    19    1
    22    17    20    1
    23    20    21    1
    24    21    22    2
    25    21    23    1
    26    21    24    1
    27    24    25    1
    28    25    26    2
    29    25    27    1
    30    25    28    1
    31    12    29    1
    32    11    30    1
    33     3    31    1
    34     1    32    1
    35     8    33    1
    36    10    34    1
    37    11    35    1
    38    12    36    1
    39    13    37    1
    40    15    38    1
    41    15    39    1
    42    19    40    1
    43    23    41    1
    44    27    42    1
    45    28    43    1
    46    29    44    1
    47    30    45    1
    48    31    46    1
    49    31    47    1
    50     2    48    1
    51     6    49    1
    52     9    50    1
    53    14    51    1
    54    14    52    1
    55    18    53    1
    56    18    54    1
    57    19    55    1
    58    19    56    1
    59    22    57    1
    60    22    58    1
    61    23    59    1
    62    23    60    1
    63    26    61    1
    64    26    62    1
    65    27    63    1
    66    27    64    1
    67    28    65    1
    68    28    66    1
    69    29    67    1
    70    29    68    1
    71    30    69    1
    72    30    70    1
@<TRIPOS>SUBSTRUCTURE
     1 RES1        1 GROUP             0 ****  ****    0  
@<TRIPOS>MOLECULE
15.8462340274
    70    72     1     0     0
SMALL
USER_CHARGES
****
Generated from the CSD

@<TRIPOS>ATOM
     1 C       95.1754  99.6312  79.0845   C.ar      1 RES1  20.8150
     2 N       94.6857 100.3937  78.0797   N.ar      1 RES1  18.9800
     3 C       95.4994 101.0664  77.2388   C.ar      1 RES1  18.7660
     4 C       96.8702 100.9412  77.4472   C.ar      1 RES1  22.2650
     5 C       97.3434 100.1464  78.4791   C.ar      1 RES1  22.7610
     6 N       96.5016  99.4928  79.2974   N.ar      1 RES1  21.9870
     7 N       98.6848 100.2139  78.4298   N.ar      1 RES1  22.8670
     8 C       99.0533 101.0288  77.4201   C.ar      1 RES1  22.8670
     9 N       97.9324 101.4697  76.8118   N.ar      1 RES1  22.7610
    10 C       99.5248  99.5973  79.3068   C.3       1 RES1  22.8670
    11 C      100.5693  98.7157  78.5896   C.3       1 RES1  23.6460
    12 C      101.8639  98.9351  79.4056   C.3       1 RES1  26.1640
    13 C      101.4026  99.8108  80.5901   C.3       1 RES1  31.8690
    14 O      100.3218 100.5495  80.0172   O.3       1 RES1  24.9120
    15 C      102.5072 100.7526  81.1077   C.3       1 RES1  32.3700
    16 O      103.6925 100.5575  80.3310   O.3       1 RES1  35.0460
    17 P      104.2338 101.6647  79.3111   P.3       1 RES1  32.3700
    18 O      105.5710 102.1401  79.7648   O.2       1 RES1  29.2050
    19 O      104.3804 100.9993  77.8632   O.3       1 RES1  30.7720
    20 O      103.2221 102.9074  79.2873   O.3       1 RES1  23.7810
    21 P      102.1267 102.7925  78.1238   P.3       1 RES1  30.6300
    22 O      100.7533 102.7707  78.7012   O.2       1 RES1  28.0980
    23 O      102.3759 101.4560  77.2787   O.3       1 RES1  33.4300
    24 O      102.2630 104.0374  77.1263   O.3       1 RES1  12.9940
    25 P      100.9538 104.2066  76.2204   P.3       1 RES1  24.8440
    26 O       99.8197 104.6449  77.0816   O.2       1 RES1  22.4780
    27 O      101.2086 105.3071  75.0868   O.3       1 RES1   4.5150
    28 O      100.5822 102.8051  75.5441   O.3       1 RES1  18.0680
    29 O      102.4641  97.7070  79.8363   O.3       1 RES1  26.2200
    30 O      100.1529  97.3453  78.5896   O.3       1 RES1  27.8160
    31 N       95.0097 101.8291  76.2379   N.pl3     1 RES1   8.6090
    32 H1      94.4816  99.1158  79.7387   H         1 RES1   0.0000
    33 H2     100.0694 101.2874  77.1440   H         1 RES1   0.0000
    34 H3      98.9660  98.9892  80.0349   H         1 RES1   0.0000
    35 H4     100.7180  99.0711  77.5576   H         1 RES1   0.0000
    36 H5     102.5789  99.4977  78.7864   H         1 RES1   0.0000
    37 H6     101.0184  99.1805  81.4070   H         1 RES1   0.0000
    38 H7     102.7129 100.5481  82.1690   H         1 RES1   0.0000
    39 H8     102.1692 101.7925  80.9966   H         1 RES1   0.0000
    40 H9     104.7019 101.6453  77.2451   H         1 RES1   0.0000
    41 H10    102.4993 101.6638  76.3608   H         1 RES1   0.0000
    42 H11    101.4619 106.1282  75.4919   H         1 RES1   0.0000
    43 H12    100.6723 102.8742  74.6009   H         1 RES1   0.0000
    44 H13    101.9980  96.9581  79.4825   H         1 RES1   0.0000
    45 H14     99.5384  97.1867  77.8818   H         1 RES1   0.0000
    46 H15     93.9920 101.9101  76.0990   H         1 RES1   0.0000
    47 H16     95.6551 102.3315  75.6119   H         1 RES1   0.0000
    48 ****    93.6955 100.4606  77.9569   Du        1 RES1   7.8700
    49 ****    96.8469  98.9210  80.0417   Du        1 RES1  22.0810
    50 ****    97.8971 102.0840  76.0235   Du        1 RES1  21.2120
    51 ****   100.6711 101.2463  79.3907   Du        1 RES1  24.9290
    52 ****    99.7814 100.9877  80.7354   Du        1 RES1  22.7010
    53 ****   105.6673 102.5878  80.6538   Du        1 RES1  29.2050
    54 ****   106.3722 102.0115  79.1804   Du        1 RES1  26.6280
    55 ****   103.4886 100.6637  77.5597   Du        1 RES1  28.3910
    56 ****   105.0248 100.2361  77.9117   Du        1 RES1  26.1100
    57 ****   100.4901 102.0460  79.3380   Du        1 RES1  24.9290
    58 ****   100.0947 103.4807  78.4518   Du        1 RES1  23.8320
    59 ****   101.5851 100.8519  77.3765   Du        1 RES1  28.3910
    60 ****   103.1927 100.9946  77.6250   Du        1 RES1  28.3910
    61 ****    99.7219 104.2759  78.0058   Du        1 RES1  21.1570
    62 ****    99.1562 105.3081  76.7353   Du        1 RES1  17.8970
    63 ****   100.3703 105.4412  74.5585   Du        1 RES1  13.1490
    64 ****   101.9394 104.9962  74.4792   Du        1 RES1  13.1490
    65 ****    99.6386 102.5650  75.7719   Du        1 RES1  23.0640
    66 ****   101.1986 102.0961  75.8866   Du        1 RES1  24.8440
    67 ****   102.4413  97.6644  80.8351   Du        1 RES1  22.3720
    68 ****   103.4133  97.6793  79.5230   Du        1 RES1  23.0220
    69 ****    99.7124  97.1344  79.4622   Du        1 RES1  20.2500
    70 ****   100.9530  96.7575  78.4695   Du        1 RES1  20.4940
@<TRIPOS>BOND
     1     1     2   ar
     2     2     3   ar
     3     3     4   ar
     4     4     5   ar
     5     5     6   ar
     6     1     6   ar
     7     5     7   ar
     8     7     8   ar
     9     8     9   ar
    10     4     9   ar
    11     7    10    1
    12    10    11    1
    13    11    12    1
    14    12    13    1
    15    13    14    1
    16    10    14    1
    17    13    15    1
    18    15    16    1
    19    16    17    1
    20    17    18    2
    21    17    19    1
    22    17    20    1
    23    20    21    1
    24    21    22    2
    25    21    23    1
    26    21    24    1
    27    24    25    1
    28    25    26    2
    29    25    27    1
    30    25    28    1
    31    12    29    1
    32    11    30    1
    33     3    31    1
    34     1    32    1
    35     8    33    1
    36    10    34    1
    37    11    35    1
    38    12    36    1
    39    13    37    1
    40    15    38    1
    41    15    39    1
    42    19    40    1
    43    23    41    1
    44    27    42    1
    45    28    43    1
    46    29    44    1
    47    30    45    1
    48    31    46    1
    49    31    47    1
    50     2    48    1
    51     6    49    1
    52     9    50    1
    53    14    51    1
    54    14    52    1
    55    18    53    1
    56    18    54    1
    57    19    55    1
    58    19    56    1
    59    22    57    1
    60    22    58    1
    61    23    59    1
    62    23    60    1
    63    26    61    1
    64    26    62    1
    65    27    63    1
    66    27    64    1
    67    28    65    1
    68    28    66    1
    69    29    67    1
    70    29    68    1
    71    30    69    1
    72    30    70    1
@<TRIPOS>SUBSTRUCTURE
     1 RES1        1 GROUP             0 ****  ****    0  
@<TRIPOS>MOLECULE
15.697574372
    70    72     1     0     0
SMALL
USER_CHARGES
****
Generated from the CSD

@<TRIPOS>ATOM
     1 C       94.2180  96.8282  80.9201   C.ar      1 RES1  17.3750
     2 N       93.4465  95.9916  81.6519   N.ar      1 RES1  18.5870
     3 C       93.9528  95.2755  82.6779   C.ar      1 RES1  18.4720
     4 C       95.3076  95.4355  82.9553   C.ar      1 RES1  19.2680
     5 C       96.0716  96.3060  82.1944   C.ar      1 RES1  19.8270
     6 N       95.5320  97.0011  81.1789   N.ar      1 RES1  22.1840
     7 N       97.3189  96.2557  82.6923   N.ar      1 RES1  20.9800
     8 C       97.3548  95.3795  83.7171   C.ar      1 RES1  20.4810
     9 N       96.1116  94.8811  83.8814   N.ar      1 RES1  19.2680
    10 C       98.3822  96.9435  82.1908   C.3       1 RES1  22.2270
    11 C       98.8028  96.4290  80.7977   C.3       1 RES1  20.9800
    12 C       99.1748  97.7145  80.0237   C.3       1 RES1  20.9800
    13 C       99.0637  98.8254  81.0896   C.3       1 RES1  22.2270
    14 O       98.0474  98.3141  81.9543   O.3       1 RES1  22.2910
    15 C       98.6560 100.1885  80.4974   C.3       1 RES1  22.2910
    16 O       98.6933 100.1101  79.0696   O.3       1 RES1  21.3800
    17 P       99.7059 100.9869  78.1950   P.3       1 RES1  23.0640
    18 O       99.1557 101.1488  76.8199   O.2       1 RES1  22.8670
    19 O       99.8509 102.4295  78.8722   O.3       1 RES1  19.4870
    20 O      101.1187 100.2358  78.1033   O.3       1 RES1  23.7970
    21 P      102.3493 101.2484  77.9384   P.3       1 RES1  30.6300
    22 O      101.9815 102.6021  78.4408   O.2       1 RES1  31.1390
    23 O      102.7670 101.3426  76.3960   O.3       1 RES1  33.4300
    24 O      103.6126 100.7040  78.7574   O.3       1 RES1  35.0460
    25 P      103.9431 101.6408  80.0130   P.3       1 RES1  32.3700
    26 O      102.6885 101.8918  80.7763   O.2       1 RES1  32.3700
    27 O      105.0055 100.9221  80.9701   O.3       1 RES1  25.7040
    28 O      104.5300 103.0387  79.5021   O.3       1 RES1  30.7720
    29 O      100.4803  97.6510  79.4359   O.3       1 RES1  27.8160
    30 O       99.9072  95.5240  80.9103   O.3       1 RES1   8.0380
    31 N       93.1825  94.4390  83.4060   N.pl3     1 RES1  32.4380
    32 H1      93.7673  97.3765  80.1007   H         1 RES1   0.0000
    33 H2      98.2266  95.1182  84.3062   H         1 RES1   0.0000
    34 H3      99.2436  96.9020  82.8752   H         1 RES1   0.0000
    35 H4      97.9506  95.9345  80.3052   H         1 RES1   0.0000
    36 H5      98.4237  97.8810  79.2366   H         1 RES1   0.0000
    37 H6     100.0066  98.9146  81.6510   H         1 RES1   0.0000
    38 H7      99.3396 100.9748  80.8507   H         1 RES1   0.0000
    39 H8      97.6322 100.4249  80.8200   H         1 RES1   0.0000
    40 H9     100.3959 102.9854  78.3275   H         1 RES1   0.0000
    41 H10    103.6310 101.7265  76.3106   H         1 RES1   0.0000
    42 H11    104.7226 100.9990  81.8736   H         1 RES1   0.0000
    43 H12    104.1261 103.7486  79.9871   H         1 RES1   0.0000
    44 H13    100.7587  96.7495  79.3221   H         1 RES1   0.0000
    45 H14    100.1265  95.1628  80.0587   H         1 RES1   0.0000
    46 H15     92.1816  94.3332  83.1859   H         1 RES1   0.0000
    47 H16     93.5968  93.9049  84.1833   H         1 RES1   0.0000
    48 ****    92.4764  95.9014  81.4268   Du        1 RES1  16.9510
    49 ****    96.0868  97.6275  80.6313   Du        1 RES1  22.2910
    50 ****    95.8350  94.2139  84.5730   Du        1 RES1  20.3310
    51 ****    97.1515  98.3820  81.5154   Du        1 RES1  22.2910
    52 ****    98.0361  98.8224  82.8155   Du        1 RES1  22.2910
    53 ****    99.0681 102.0615  76.4207   Du        1 RES1  22.8670
    54 ****    98.8740 100.3449  76.2962   Du        1 RES1  22.8670
    55 ****   100.2717 102.3325  79.7742   Du        1 RES1  24.9120
    56 ****    98.9459 102.8436  78.9693   Du        1 RES1  22.2440
    57 ****   102.1667 102.8499  79.3917   Du        1 RES1  32.3700
    58 ****   101.5493 103.2628  77.8270   Du        1 RES1  30.6300
    59 ****   102.1040 101.9113  75.9090   Du        1 RES1  24.8440
    60 ****   102.7735 100.4246  75.9995   Du        1 RES1  23.0140
    61 ****   101.8120 101.5712  80.4170   Du        1 RES1  32.3700
    62 ****   102.7228 102.3810  81.6478   Du        1 RES1  32.3700
    63 ****   105.8989 101.3582  80.8626   Du        1 RES1  30.7470
    64 ****   105.0747  99.9553  80.7240   Du        1 RES1  31.9470
    65 ****   104.3329 103.1466  78.5276   Du        1 RES1  31.1390
    66 ****   105.5194 103.0573  79.6461   Du        1 RES1  28.2310
    67 ****   101.1308  98.1215  80.0321   Du        1 RES1  24.3780
    68 ****   100.4596  98.1020  78.5436   Du        1 RES1  23.6460
    69 ****    99.6614  94.7794  81.5309   Du        1 RES1  21.8640
    70 ****   100.6992  96.0139  81.2746   Du        1 RES1  20.9800
@<TRIPOS>BOND
     1     1     2   ar
     2     2     3   ar
     3     3     4   ar
     4     4     5   ar
     5     5     6   ar
     6     1     6   ar
     7     5     7   ar
     8     7     8   ar
     9     8     9   ar
    10     4     9   ar
    11     7    10    1
    12    10    11    1
    13    11    12    1
    14    12    13    1
    15    13    14    1
    16    10    14    1
    17    13    15    1
    18    15    16    1
    19    16    17    1
    20    17    18    2
    21    17    19    1
    22    17    20    1
    23    20    21    1
    24    21    22    2
    25    21    23    1
    26    21    24    1
    27    24    25    1
    28    25    26    2
    29    25    27    1
    30    25    28    1
    31    12    29    1
    32    11    30    1
    33     3    31    1
    34     1    32    1
    35     8    33    1
    36    10    34    1
    37    11    35    1
    38    12    36    1
    39    13    37    1
    40    15    38    1
    41    15    39    1
    42    19    40    1
    43    23    41    1
    44    27    42    1
    45    28    43    1
    46    29    44    1
    47    30    45    1
    48    31    46    1
    49    31    47    1
    50     2    48    1
    51     6    49    1
    52     9    50    1
    53    14    51    1
    54    14    52    1
    55    18    53    1
    56    18    54    1
    57    19    55    1
    58    19    56    1
    59    22    57    1
    60    22    58    1
    61    23    59    1
    62    23    60    1
    63    26    61    1
    64    26    62    1
    65    27    63    1
    66    27    64    1
    67    28    65    1
    68    28    66    1
    69    29    67    1
    70    29    68    1
    71    30    69    1
    72    30    70    1
@<TRIPOS>SUBSTRUCTURE
     1 RES1        1 GROUP             0 ****  ****    0  
@<TRIPOS>MOLECULE
15.3338084322
    70    72     1     0     0
SMALL
USER_CHARGES
****
Generated from the CSD

@<TRIPOS>ATOM
     1 C       96.3710  95.3525  82.6186   C.ar      1 RES1  20.4810
     2 N       95.0461  95.6000  82.5000   N.ar      1 RES1  19.8270
     3 C       94.5845  96.7624  81.9925   C.ar      1 RES1  18.0210
     4 C       95.5322  97.7002  81.5918   C.ar      1 RES1  22.2910
     5 C       96.8828  97.4159  81.7171   C.ar      1 RES1  22.2910
     6 N       97.3044  96.2473  82.2291   N.ar      1 RES1  20.9800
     7 N       97.5444  98.4888  81.2507   N.ar      1 RES1  22.2910
     8 C       96.6559  99.4248  80.8586   C.ar      1 RES1  22.2910
     9 N       95.4163  98.9325  81.0635   N.ar      1 RES1  22.2910
    10 C       98.9002  98.6185  81.2382   C.3       1 RES1  22.2270
    11 C       99.5511  97.8101  80.0957   C.3       1 RES1  20.9800
    12 C      100.6889  98.7280  79.5927   C.3       1 RES1  23.6460
    13 C      100.6672  99.9104  80.5846   C.3       1 RES1  24.9120
    14 O       99.2890  99.9664  80.9581   O.3       1 RES1  21.5210
    15 C      101.1252 101.2374  79.9486   C.3       1 RES1  28.5050
    16 O      102.4877 101.1123  79.5314   O.3       1 RES1  23.7780
    17 P      103.4231 102.3865  79.2850   P.3       1 RES1  32.3700
    18 O      104.8413 101.9427  79.1774   O.2       1 RES1  31.2620
    19 O      102.9886 103.0828  77.9113   O.3       1 RES1  33.4300
    20 O      103.2876 103.3945  80.5236   O.3       1 RES1  36.8730
    21 P      103.7193 102.7281  81.9150   P.3       1 RES1  32.3700
    22 O      102.8815 101.5296  82.2012   O.2       1 RES1  32.3700
    23 O      103.5541 103.7942  83.0976   O.3       1 RES1   0.0000
    24 O      105.2597 102.2961  81.8543   O.3       1 RES1  24.8900
    25 P      105.4378 100.7274  82.1201   P.3       1 RES1  30.7470
    26 O      106.8495 100.3433  81.8380   O.2       1 RES1  27.4490
    27 O      105.0955 100.3864  83.6458   O.3       1 RES1   0.0000
    28 O      104.4702  99.9033  81.1484   O.3       1 RES1  14.5200
    29 O      101.9608  98.0683  79.5581   O.3       1 RES1  27.8160
    30 O      100.0409  96.5563  80.5850   O.3       1 RES1  24.3340
    31 N       93.2620  97.0094  81.8769   N.pl3     1 RES1  15.9250
    32 H1      96.6931  94.4069  83.0393   H         1 RES1   0.0000
    33 H2      96.8920 100.4016  80.4517   H         1 RES1   0.0000
    34 H3      99.3394  98.3157  82.2014   H         1 RES1   0.0000
    35 H4      98.8222  97.6473  79.2861   H         1 RES1   0.0000
    36 H5     100.4319  99.0864  78.5844   H         1 RES1   0.0000
    37 H6     101.2746  99.6779  81.4729   H         1 RES1   0.0000
    38 H7     101.0259 102.0591  80.6735   H         1 RES1   0.0000
    39 H8     100.4965 101.4477  79.0720   H         1 RES1   0.0000
    40 H9     103.7304 103.1113  77.3183   H         1 RES1   0.0000
    41 H10    104.3534 104.2949  83.2051   H         1 RES1   0.0000
    42 H11    105.3982 101.0921  84.2051   H         1 RES1   0.0000
    43 H12    104.6431 100.1474  80.2468   H         1 RES1   0.0000
    44 H13    101.8640  97.1556  79.3113   H         1 RES1   0.0000
    45 H14    100.6818  96.1944  79.9834   H         1 RES1   0.0000
    46 H15     92.5751  96.3034  82.1790   H         1 RES1   0.0000
    47 H16     92.9392  97.9060  81.4862   H         1 RES1   0.0000
    48 ****    94.3920  94.9038  82.7960   Du        1 RES1  18.8090
    49 ****    98.2798  96.0463  82.3190   Du        1 RES1  20.9800
    50 ****    94.5581  99.4030  80.8578   Du        1 RES1  18.9800
    51 ****    98.7408 100.3373  80.2085   Du        1 RES1  22.0810
    52 ****    99.1723 100.5375  81.7707   Du        1 RES1  21.8060
    53 ****   105.5182 102.5337  78.7386   Du        1 RES1  26.6380
    54 ****   105.1162 101.0538  79.5439   Du        1 RES1  32.3700
    55 ****   102.6742 104.0140  78.0955   Du        1 RES1  29.5530
    56 ****   102.2479 102.5577  77.4922   Du        1 RES1  28.3910
    57 ****   102.3378 101.4882  83.0395   Du        1 RES1  30.3250
    58 ****   102.8629 100.7667  81.5550   Du        1 RES1  32.3700
    59 ****   103.3500 103.3123  83.9498   Du        1 RES1  15.7500
    60 ****   102.8025 104.4162  82.8781   Du        1 RES1  22.4230
    61 ****   107.5657 101.0412  81.8309   Du        1 RES1  26.6280
    62 ****   107.0807  99.3877  81.6556   Du        1 RES1  27.4490
    63 ****   105.5512  99.5355  83.9072   Du        1 RES1  27.9520
    64 ****   104.1065 100.2803  83.7495   Du        1 RES1  30.7470
    65 ****   103.5179 100.1101  81.3728   Du        1 RES1  31.9470
    66 ****   104.6352  98.9241  81.2660   Du        1 RES1  30.7470
    67 ****   102.3805  98.1194  80.4643   Du        1 RES1  25.4590
    68 ****   102.5490  98.5267  78.8919   Du        1 RES1  23.6460
    69 ****    99.2772  95.9172  80.6769   Du        1 RES1  20.9800
    70 ****   100.4686  96.6952  81.4782   Du        1 RES1  20.9800
@<TRIPOS>BOND
     1     1     2   ar
     2     2     3   ar
     3     3     4   ar
     4     4     5   ar
     5     5     6   ar
     6     1     6   ar
     7     5     7   ar
     8     7     8   ar
     9     8     9   ar
    10     4     9   ar
    11     7    10    1
    12    10    11    1
    13    11    12    1
    14    12    13    1
    15    13    14    1
    16    10    14    1
    17    13    15    1
    18    15    16    1
    19    16    17    1
    20    17    18    2
    21    17    19    1
    22    17    20    1
    23    20    21    1
    24    21    22    2
    25    21    23    1
    26    21    24    1
    27    24    25    1
    28    25    26    2
    29    25    27    1
    30    25    28    1
    31    12    29    1
    32    11    30    1
    33     3    31    1
    34     1    32    1
    35     8    33    1
    36    10    34    1
    37    11    35    1
    38    12    36    1
    39    13    37    1
    40    15    38    1
    41    15    39    1
    42    19    40    1
    43    23    41    1
    44    27    42    1
    45    28    43    1
    46    29    44    1
    47    30    45    1
    48    31    46    1
    49    31    47    1
    50     2    48    1
    51     6    49    1
    52     9    50    1
    53    14    51    1
    54    14    52    1
    55    18    53    1
    56    18    54    1
    57    19    55    1
    58    19    56    1
    59    22    57    1
    60    22    58    1
    61    23    59    1
    62    23    60    1
    63    26    61    1
    64    26    62    1
    65    27    63    1
    66    27    64    1
    67    28    65    1
    68    28    66    1
    69    29    67    1
    70    29    68    1
    71    30    69    1
    72    30    70    1
@<TRIPOS>SUBSTRUCTURE
     1 RES1        1 GROUP             0 ****  ****    0  
@<TRIPOS>MOLECULE
15.2332766107
    70    72     1     0     0
SMALL
USER_CHARGES
****
Generated from the CSD

@<TRIPOS>ATOM
     1 C       95.5183  92.9476  84.5489   C.ar      1 RES1  20.5830
     2 N       94.2414  93.1410  84.1449   N.ar      1 RES1  20.0080
     3 C       93.9082  94.1409  83.3019   C.ar      1 RES1  19.0230
     4 C       94.9375  94.9681  82.8609   C.ar      1 RES1  19.0520
     5 C       96.2373  94.7410  83.2845   C.ar      1 RES1  20.3310
     6 N       96.5302  93.7355  84.1263   N.ar      1 RES1  20.7140
     7 N       97.0001  95.6796  82.6984   N.ar      1 RES1  20.4810
     8 C       96.2201  96.4816  81.9451   C.ar      1 RES1  19.8270
     9 N       94.9501  96.0358  82.0416   N.ar      1 RES1  19.8270
    10 C       98.3408  95.8213  82.8925   C.3       1 RES1  20.9800
    11 C       99.0842  94.4702  82.8242   C.3       1 RES1  21.8640
    12 C      100.3997  94.8070  82.0853   C.3       1 RES1  21.8640
    13 C      100.3439  96.3412  81.9251   C.3       1 RES1  20.9800
    14 O       98.9384  96.5855  81.8412   O.3       1 RES1  20.9800
    15 C      101.0715  96.8409  80.6617   C.3       1 RES1  20.7330
    16 O      101.8976  97.9567  81.0062   O.3       1 RES1  23.1880
    17 P      101.3014  99.4274  81.2075   P.3       1 RES1  29.2970
    18 O      101.0017 100.0237  79.8754   O.2       1 RES1  27.9720
    19 O       99.9439  99.3192  82.0479   O.3       1 RES1  17.0580
    20 O      102.3837 100.3436  81.9543   O.3       1 RES1  23.2370
    21 P      103.8831 100.0478  81.4740   P.3       1 RES1  31.9470
    22 O      104.2206  98.6103  81.6738   O.2       1 RES1  27.8300
    23 O      104.9046 100.9600  82.3028   O.3       1 RES1   0.0000
    24 O      104.0390 100.4187  79.9243   O.3       1 RES1  37.8750
    25 P      104.0107 102.0031  79.6967   P.3       1 RES1  32.3700
    26 O      105.4032 102.4892  79.4856   O.2       1 RES1  28.2310
    27 O      103.1295 102.3575  78.4087   O.3       1 RES1  33.4300
    28 O      103.3989 102.7218  80.9886   O.3       1 RES1  25.7040
    29 O      101.5646  94.3751  82.7997   O.3       1 RES1  19.0700
    30 O       99.3168  93.9593  84.1419   O.3       1 RES1  19.0700
    31 N       92.6333  94.3346  82.9013   N.pl3     1 RES1  32.4380
    32 H1      95.7353  92.1352  85.2329   H         1 RES1   0.0000
    33 H2      96.5510  97.3353  81.3644   H         1 RES1   0.0000
    34 H3      98.5556  96.3126  83.8542   H         1 RES1   0.0000
    35 H4      98.5010  93.7485  82.2307   H         1 RES1   0.0000
    36 H5     100.3778  94.3307  81.0934   H         1 RES1   0.0000
    37 H6     100.7451  96.8360  82.8230   H         1 RES1   0.0000
    38 H7     100.3398  97.1349  79.8945   H         1 RES1   0.0000
    39 H8     101.7028  96.0306  80.2706   H         1 RES1   0.0000
    40 H9     100.1440  99.2844  82.9761   H         1 RES1   0.0000
    41 H10    104.9439 101.8328  81.9317   H         1 RES1   0.0000
    42 H11    103.6799 102.7614  77.7481   H         1 RES1   0.0000
    43 H12    102.6121 103.1954  80.7455   H         1 RES1   0.0000
    44 H13    102.3457  94.4721  82.2671   H         1 RES1   0.0000
    45 H14     99.8397  94.5723  84.6464   H         1 RES1   0.0000
    46 H15     91.8845  93.7123  83.2384   H         1 RES1   0.0000
    47 H16     92.4088  95.1065  82.2575   H         1 RES1   0.0000
    48 ****    93.5263  92.5272  84.4796   Du        1 RES1  19.0230
    49 ****    97.4692  93.5756  84.4307   Du        1 RES1  20.3310
    50 ****    94.1544  96.4311  81.5828   Du        1 RES1  18.5870
    51 ****    98.5868  96.2891  80.9533   Du        1 RES1  20.9800
    52 ****    98.7470  97.5589  81.9674   Du        1 RES1  22.2910
    53 ****   101.6142 100.7119  79.4864   Du        1 RES1  31.8690
    54 ****   100.1881  99.7358  79.3703   Du        1 RES1  23.6460
    55 ****    99.4537  98.4891  81.7821   Du        1 RES1  21.3640
    56 ****    99.3724 100.1181  81.8607   Du        1 RES1  21.5210
    57 ****   103.5254  97.9758  82.0117   Du        1 RES1  25.4590
    58 ****   105.1422  98.2801  81.4700   Du        1 RES1  27.8300
    59 ****   105.8150 100.5473  82.2717   Du        1 RES1  30.7470
    60 ****   104.5977 101.0191  83.2527   Du        1 RES1  30.7470
    61 ****   106.0100 102.0085  78.8527   Du        1 RES1  26.6280
    62 ****   105.7309 103.2963  79.9768   Du        1 RES1  27.4220
    63 ****   102.4008 102.9913  78.6679   Du        1 RES1  31.1390
    64 ****   102.7271 101.5197  78.0398   Du        1 RES1  30.6300
    65 ****   104.0702 103.3613  81.3634   Du        1 RES1  32.3700
    66 ****   103.1737 102.0331  81.6777   Du        1 RES1  32.3700
    67 ****   101.4567  93.4130  83.0502   Du        1 RES1  19.3570
    68 ****   101.6632  94.9262  83.6283   Du        1 RES1  19.3090
    69 ****    99.8024  93.0875  84.0766   Du        1 RES1  18.1760
    70 ****    98.4395  93.8186  84.6007   Du        1 RES1  19.2680
@<TRIPOS>BOND
     1     1     2   ar
     2     2     3   ar
     3     3     4   ar
     4     4     5   ar
     5     5     6   ar
     6     1     6   ar
     7     5     7   ar
     8     7     8   ar
     9     8     9   ar
    10     4     9   ar
    11     7    10    1
    12    10    11    1
    13    11    12    1
    14    12    13    1
    15    13    14    1
    16    10    14    1
    17    13    15    1
    18    15    16    1
    19    16    17    1
    20    17    18    2
    21    17    19    1
    22    17    20    1
    23    20    21    1
    24    21    22    2
    25    21    23    1
    26    21    24    1
    27    24    25    1
    28    25    26    2
    29    25    27    1
    30    25    28    1
    31    12    29    1
    32    11    30    1
    33     3    31    1
    34     1    32    1
    35     8    33    1
    36    10    34    1
    37    11    35    1
    38    12    36    1
    39    13    37    1
    40    15    38    1
    41    15    39    1
    42    19    40    1
    43    23    41    1
    44    27    42    1
    45    28    43    1
    46    29    44    1
    47    30    45    1
    48    31    46    1
    49    31    47    1
    50     2    48    1
    51     6    49    1
    52     9    50    1
    53    14    51    1
    54    14    52    1
    55    18    53    1
    56    18    54    1
    57    19    55    1
    58    19    56    1
    59    22    57    1
    60    22    58    1
    61    23    59    1
    62    23    60    1
    63    26    61    1
    64    26    62    1
    65    27    63    1
    66    27    64    1
    67    28    65    1
    68    28    66    1
    69    29    67    1
    70    29    68    1
    71    30    69    1
    72    30    70    1
@<TRIPOS>SUBSTRUCTURE
     1 RES1        1 GROUP             0 ****  ****    0  
@<TRIPOS>MOLECULE
15.0813403231
    70    72     1     0     0
SMALL
USER_CHARGES
****
Generated from the CSD

@<TRIPOS>ATOM
     1 C      101.3490 102.6115  76.7949   C.ar      1 RES1  25.4070
     2 N      100.5622 103.3680  75.9953   N.ar      1 RES1  24.8440
     3 C       99.2346 103.1471  75.8928   C.ar      1 RES1  22.2440
     4 C       98.7049 102.1051  76.6489   C.ar      1 RES1  22.8670
     5 C       99.5334 101.3523  77.4658   C.ar      1 RES1  23.0640
     6 N      100.8517 101.6014  77.5404   N.ar      1 RES1  27.7060
     7 N       98.7514 100.4389  78.0663   N.ar      1 RES1  22.8670
     8 C       97.4807 100.5908  77.6402   C.ar      1 RES1  22.7610
     9 N       97.4542 101.6235  76.7721   N.ar      1 RES1  22.7610
    10 C       99.1981  99.4789  78.9230   C.3       1 RES1  22.8670
    11 C      100.4367  98.7397  78.3734   C.3       1 RES1  23.6460
    12 C      101.3267  98.5288  79.6197   C.3       1 RES1  25.7650
    13 C      100.4516  99.0432  80.7824   C.3       1 RES1  22.6210
    14 O       99.6670 100.0539  80.1461   O.3       1 RES1  22.0810
    15 C      101.2781  99.6296  81.9435   C.3       1 RES1  29.2970
    16 O      102.5862  99.9602  81.4684   O.3       1 RES1  25.9170
    17 P      103.6717 100.6819  82.3958   P.3       1 RES1  32.3700
    18 O      104.0236 102.0034  81.8047   O.2       1 RES1  32.3700
    19 O      103.0348 100.9118  83.8457   O.3       1 RES1   0.0000
    20 O      104.9934  99.7786  82.4708   O.3       1 RES1   5.2480
    21 P      106.3072 100.6298  82.8118   P.3       1 RES1  30.7470
    22 O      107.5179  99.7629  82.7604   O.2       1 RES1  21.8500
    23 O      106.1687 101.2739  84.2706   O.3       1 RES1   0.0000
    24 O      106.4663 101.8258  81.7594   O.3       1 RES1  24.8900
    25 P      106.3367 101.3000  80.2528   P.3       1 RES1  30.7470
    26 O      106.1477  99.8222  80.2679   O.2       1 RES1  30.7470
    27 O      105.0780 101.9834  79.5388   O.3       1 RES1  30.7720
    28 O      107.6738 101.6454  79.4451   O.3       1 RES1   0.0000
    29 O      101.7204  97.1621  79.7964   O.3       1 RES1  27.8160
    30 O      100.0520  97.5016  77.7647   O.3       1 RES1  27.8160
    31 N       98.4507 103.9011  75.0926   N.pl3     1 RES1  26.7350
    32 H1     102.4113 102.8228  76.8382   H         1 RES1   0.0000
    33 H2      96.6288  99.9903  77.9390   H         1 RES1   0.0000
    34 H3      98.4059  98.7502  79.1546   H         1 RES1   0.0000
    35 H4     100.9641  99.3769  77.6459   H         1 RES1   0.0000
    36 H5     102.2224  99.1610  79.5233   H         1 RES1   0.0000
    37 H6      99.7876  98.2439  81.1462   H         1 RES1   0.0000
    38 H7     101.3474  98.9010  82.7650   H         1 RES1   0.0000
    39 H8     100.7842 100.5416  82.3070   H         1 RES1   0.0000
    40 H9     102.0872 100.8734  83.7888   H         1 RES1   0.0000
    41 H10    106.6092 102.1141  84.3040   H         1 RES1   0.0000
    42 H11    105.3464 102.3518  78.7054   H         1 RES1   0.0000
    43 H12    108.0565 100.8441  79.1076   H         1 RES1   0.0000
    44 H13    100.9651  96.5855  79.7793   H         1 RES1   0.0000
    45 H14    100.3167  96.7692  78.3098   H         1 RES1   0.0000
    46 H15     98.8605 104.6680  74.5400   H         1 RES1   0.0000
    47 H16     97.4405 103.7087  75.0343   H         1 RES1   0.0000
    48 ****   100.9748 104.1099  75.4668   Du        1 RES1  23.6700
    49 ****   101.4466 101.0552  78.1302   Du        1 RES1  30.6300
    50 ****    96.6438 101.9716  76.3009   Du        1 RES1  20.4940
    51 ****   100.2267 100.8611  79.9583   Du        1 RES1  22.7010
    52 ****    98.8950 100.3115  80.7272   Du        1 RES1  21.5210
    53 ****   104.5347 102.0471  80.9463   Du        1 RES1  32.3700
    54 ****   103.7488 102.8468  82.2664   Du        1 RES1  32.3700
    55 ****   103.3111 101.8084  84.1917   Du        1 RES1  27.9520
    56 ****   103.3596 100.1997  84.4682   Du        1 RES1  19.7240
    57 ****   107.4203  98.7734  82.6535   Du        1 RES1  20.6280
    58 ****   108.4282 100.1705  82.8329   Du        1 RES1   7.4010
    59 ****   106.5805 100.6588  84.9430   Du        1 RES1  12.7990
    60 ****   105.2001 101.4009  84.4844   Du        1 RES1  19.7240
    61 ****   105.6878  99.3691  79.5042   Du        1 RES1  27.6610
    62 ****   106.4807  99.2834  81.0417   Du        1 RES1  30.7470
    63 ****   104.7175 102.7102  80.1235   Du        1 RES1  32.3700
    64 ****   104.3681 101.2959  79.3858   Du        1 RES1  32.3700
    65 ****   108.3257 102.0943  80.0562   Du        1 RES1  12.9270
    66 ****   107.4550 102.2563  78.6842   Du        1 RES1  23.9460
    67 ****   102.1849  97.0667  80.6768   Du        1 RES1  21.5880
    68 ****   102.3458  96.9040  79.0600   Du        1 RES1  21.5880
    69 ****   100.4922  97.4230  76.8703   Du        1 RES1  23.6460
    70 ****    99.0587  97.4851  77.6500   Du        1 RES1  18.2700
@<TRIPOS>BOND
     1     1     2   ar
     2     2     3   ar
     3     3     4   ar
     4     4     5   ar
     5     5     6   ar
     6     1     6   ar
     7     5     7   ar
     8     7     8   ar
     9     8     9   ar
    10     4     9   ar
    11     7    10    1
    12    10    11    1
    13    11    12    1
    14    12    13    1
    15    13    14    1
    16    10    14    1
    17    13    15    1
    18    15    16    1
    19    16    17    1
    20    17    18    2
    21    17    19    1
    22    17    20    1
    23    20    21    1
    24    21    22    2
    25    21    23    1
    26    21    24    1
    27    24    25    1
    28    25    26    2
    29    25    27    1
    30    25    28    1
    31    12    29    1
    32    11    30    1
    33     3    31    1
    34     1    32    1
    35     8    33    1
    36    10    34    1
    37    11    35    1
    38    12    36    1
    39    13    37    1
    40    15    38    1
    41    15    39    1
    42    19    40    1
    43    23    41    1
    44    27    42    1
    45    28    43    1
    46    29    44    1
    47    30    45    1
    48    31    46    1
    49    31    47    1
    50     2    48    1
    51     6    49    1
    52     9    50    1
    53    14    51    1
    54    14    52    1
    55    18    53    1
    56    18    54    1
    57    19    55    1
    58    19    56    1
    59    22    57    1
    60    22    58    1
    61    23    59    1
    62    23    60    1
    63    26    61    1
    64    26    62    1
    65    27    63    1
    66    27    64    1
    67    28    65    1
    68    28    66    1
    69    29    67    1
    70    29    68    1
    71    30    69    1
    72    30    70    1
@<TRIPOS>SUBSTRUCTURE
     1 RES1        1 GROUP             0 ****  ****    0  
@<TRIPOS>MOLECULE
15.0352764814
    70    72     1     0     0
SMALL
USER_CHARGES
****
Generated from the CSD

@<TRIPOS>ATOM
     1 C       94.2913  97.3582  78.1335   C.ar      1 RES1  17.1020
     2 N       93.1526  97.5378  78.8419   N.ar      1 RES1  13.9910
     3 C       93.1729  97.9830  80.1159   C.ar      1 RES1  14.3530
     4 C       94.4195  98.2534  80.6734   C.ar      1 RES1  18.9800
     5 C       95.5686  98.0684  79.9213   C.ar      1 RES1  20.8900
     6 N       95.5085  97.6216  78.6555   N.ar      1 RES1  20.8900
     7 N       96.6014  98.4114  80.7100   N.ar      1 RES1  22.2910
     8 C       96.1344  98.7847  81.9190   C.ar      1 RES1  22.2910
     9 N       94.7884  98.6932  81.8908   N.ar      1 RES1  20.5070
    10 C       97.9123  98.3318  80.3490   C.3       1 RES1  22.2910
    11 C       98.0880  97.8048  78.9089   C.3       1 RES1  20.8900
    12 C       99.2561  98.6460  78.3453   C.3       1 RES1  21.0590
    13 C       99.7259  99.4750  79.5597   C.3       1 RES1  22.8670
    14 O       98.5176  99.6274  80.3073   O.3       1 RES1  22.2910
    15 C      100.3108 100.8445  79.1630   C.3       1 RES1  24.9290
    16 O      101.7092 100.8625  79.4634   O.3       1 RES1  23.7780
    17 P      102.8264 100.7838  78.3211   P.3       1 RES1  31.1390
    18 O      102.5784  99.5851  77.4717   O.2       1 RES1  23.6460
    19 O      102.7235 102.0972  77.4127   O.3       1 RES1  33.4300
    20 O      104.2726 100.6494  78.9985   O.3       1 RES1  37.8750
    21 P      104.5793 101.8247  80.0431   P.3       1 RES1  32.3700
    22 O      103.6390 102.9623  79.8388   O.2       1 RES1  32.3700
    23 O      106.0859 102.3324  79.8564   O.3       1 RES1  19.9770
    24 O      104.4281 101.2738  81.5387   O.3       1 RES1  37.2370
    25 P      105.4323 100.0586  81.8183   P.3       1 RES1  30.7470
    26 O      105.1982  99.5412  83.1958   O.2       1 RES1  30.7470
    27 O      105.1773  98.8815  80.7645   O.3       1 RES1   2.2910
    28 O      106.9434 100.5719  81.7051   O.3       1 RES1   1.5450
    29 O      100.3063  97.8405  77.7955   O.3       1 RES1  27.8160
    30 O       98.3841  96.4035  78.9209   O.3       1 RES1  22.9910
    31 N       92.0360  98.1595  80.8228   N.pl3     1 RES1  13.0770
    32 H1      94.2243  96.9914  77.1157   H         1 RES1   0.0000
    33 H2      96.7317  99.1015  82.7665   H         1 RES1   0.0000
    34 H3      98.4810  97.6972  81.0462   H         1 RES1   0.0000
    35 H4      97.1760  97.9989  78.3224   H         1 RES1   0.0000
    36 H5      98.8623  99.3188  77.5685   H         1 RES1   0.0000
    37 H6     100.4525  98.9031  80.1573   H         1 RES1   0.0000
    38 H7      99.7964 101.6489  79.7098   H         1 RES1   0.0000
    39 H8     100.1710 100.9920  78.0829   H         1 RES1   0.0000
    40 H9     103.5834 102.4905  77.3202   H         1 RES1   0.0000
    41 H10    106.4824 102.5081  80.7008   H         1 RES1   0.0000
    42 H11    105.8091  98.1863  80.9052   H         1 RES1   0.0000
    43 H12    106.9950 101.4737  81.9994   H         1 RES1   0.0000
    44 H13    100.5951  97.1852  78.4204   H         1 RES1   0.0000
    45 H14     99.3229  96.2646  78.9754   H         1 RES1   0.0000
    46 H15     91.1221  97.9538  80.3936   H         1 RES1   0.0000
    47 H16     92.0825  98.5002  81.7937   H         1 RES1   0.0000
    48 ****    92.2734  97.3355  78.4104   Du        1 RES1   9.4480
    49 ****    96.3401  97.4882  78.1163   Du        1 RES1  20.0310
    50 ****    94.1706  98.9143  82.6454   Du        1 RES1  15.8540
    51 ****    97.9097 100.2803  79.8555   Du        1 RES1  22.0810
    52 ****    98.7200  99.9461  81.2333   Du        1 RES1  22.2910
    53 ****   102.6479  98.6692  77.8670   Du        1 RES1  23.6460
    54 ****   102.3425  99.6965  76.5064   Du        1 RES1  23.5360
    55 ****   102.1030 102.7521  77.8442   Du        1 RES1  30.6300
    56 ****   102.3720 101.8502  76.5097   Du        1 RES1  24.9290
    57 ****   102.6600 102.7888  79.7316   Du        1 RES1  32.3700
    58 ****   103.9869 103.8994  79.8088   Du        1 RES1  30.9350
    59 ****   106.0861 103.1709  79.3113   Du        1 RES1  26.6280
    60 ****   106.6151 101.6277  79.3839   Du        1 RES1  26.6280
    61 ****   104.2845  99.5892  83.5994   Du        1 RES1  30.7470
    62 ****   105.9548  99.1459  83.7167   Du        1 RES1  30.7470
    63 ****   105.2765  99.2388  79.8358   Du        1 RES1  28.9270
    64 ****   104.2526  98.5206  80.8858   Du        1 RES1  27.8300
    65 ****   107.2444 100.5143  80.7533   Du        1 RES1  27.4490
    66 ****   107.5330 100.0008  82.2763   Du        1 RES1  24.6300
    67 ****   101.0793  98.4287  77.5576   Du        1 RES1  23.6460
    68 ****    99.9705  97.3823  76.9726   Du        1 RES1  23.6460
    69 ****    98.0372  95.9859  78.0811   Du        1 RES1  20.0310
    70 ****    97.9416  95.9797  79.7112   Du        1 RES1  20.8900
@<TRIPOS>BOND
     1     1     2   ar
     2     2     3   ar
     3     3     4   ar
     4     4     5   ar
     5     5     6   ar
     6     1     6   ar
     7     5     7   ar
     8     7     8   ar
     9     8     9   ar
    10     4     9   ar
    11     7    10    1
    12    10    11    1
    13    11    12    1
    14    12    13    1
    15    13    14    1
    16    10    14    1
    17    13    15    1
    18    15    16    1
    19    16    17    1
    20    17    18    2
    21    17    19    1
    22    17    20    1
    23    20    21    1
    24    21    22    2
    25    21    23    1
    26    21    24    1
    27    24    25    1
    28    25    26    2
    29    25    27    1
    30    25    28    1
    31    12    29    1
    32    11    30    1
    33     3    31    1
    34     1    32    1
    35     8    33    1
    36    10    34    1
    37    11    35    1
    38    12    36    1
    39    13    37    1
    40    15    38    1
    41    15    39    1
    42    19    40    1
    43    23    41    1
    44    27    42    1
    45    28    43    1
    46    29    44    1
    47    30    45    1
    48    31    46    1
    49    31    47    1
    50     2    48    1
    51     6    49    1
    52     9    50    1
    53    14    51    1
    54    14    52    1
    55    18    53    1
    56    18    54    1
    57    19    55    1
    58    19    56    1
    59    22    57    1
    60    22    58    1
    61    23    59    1
    62    23    60    1
    63    26    61    1
    64    26    62    1
    65    27    63    1
    66    27    64    1
    67    28    65    1
    68    28    66    1
    69    29    67    1
    70    29    68    1
    71    30    69    1
    72    30    70    1
@<TRIPOS>SUBSTRUCTURE
     1 RES1        1 GROUP             0 ****  ****    0  
@<TRIPOS>MOLECULE
14.9037233261
    70    72     1     0     0
SMALL
USER_CHARGES
****
Generated from the CSD

@<TRIPOS>ATOM
     1 C       96.6974 101.7380  76.4913   C.ar      1 RES1  20.4940
     2 N       95.6240 101.4708  75.7120   N.ar      1 RES1  11.6020
     3 C       94.8971 100.3444  75.8684   C.ar      1 RES1  12.6730
     4 C       95.2975  99.4652  76.8708   C.ar      1 RES1  18.7660
     5 C       96.3957  99.7691  77.6595   C.ar      1 RES1  21.9870
     6 N       97.0962 100.9005  77.4726   N.ar      1 RES1  22.2650
     7 N       96.5344  98.7543  78.5296   N.ar      1 RES1  21.9870
     8 C       95.5761  97.8340  78.2976   C.ar      1 RES1  20.8900
     9 N       94.8107  98.2788  77.2791   N.ar      1 RES1  20.8150
    10 C       97.5286  98.6573  79.4556   C.3       1 RES1  21.1340
    11 C       98.7177  97.8153  78.9461   C.3       1 RES1  20.8900
    12 C       99.9592  98.5573  79.4920   C.3       1 RES1  23.6460
    13 C       99.3576  99.6714  80.3749   C.3       1 RES1  21.5210
    14 O       98.1136  99.9351  79.7229   O.3       1 RES1  22.7610
    15 C      100.2363 100.9363  80.4289   C.3       1 RES1  22.7010
    16 O      101.2814 100.7414  81.3860   O.3       1 RES1  23.2370
    17 P      102.7773 100.3782  80.9508   P.3       1 RES1  32.3700
    18 O      103.3370  99.3765  81.9012   O.2       1 RES1  30.7470
    19 O      102.7437  99.7426  79.4827   O.3       1 RES1  26.2200
    20 O      103.6820 101.7003  80.9985   O.3       1 RES1  36.8730
    21 P      104.6987 101.8003  79.7644   P.3       1 RES1  32.3700
    22 O      105.4354 103.0950  79.7994   O.2       1 RES1  28.2310
    23 O      103.8900 101.6790  78.3883   O.3       1 RES1  33.4300
    24 O      105.7470 100.5918  79.8266   O.3       1 RES1  37.8750
    25 P      106.6276 100.6500  81.1624   P.3       1 RES1  30.7470
    26 O      106.1398  99.6111  82.1124   O.2       1 RES1  30.7470
    27 O      108.1652 100.3679  80.8195   O.3       1 RES1   0.0000
    28 O      106.4778 102.0898  81.8438   O.3       1 RES1   2.6890
    29 O      100.8426  97.6983  80.2240   O.3       1 RES1  27.8160
    30 O       98.6277  96.4728  79.4371   O.3       1 RES1  22.9910
    31 N       93.8276 100.0775  75.0885   N.pl3     1 RES1   0.0000
    32 H1      97.2543 102.6526  76.3225   H         1 RES1   0.0000
    33 H2      95.4420  96.9001  78.8318   H         1 RES1   0.0000
    34 H3      97.1545  98.2340  80.4006   H         1 RES1   0.0000
    35 H4      98.7387  97.8201  77.8448   H         1 RES1   0.0000
    36 H5     100.5001  99.0077  78.6459   H         1 RES1   0.0000
    37 H6      99.1620  99.2933  81.3902   H         1 RES1   0.0000
    38 H7      99.6270 101.8091  80.7072   H         1 RES1   0.0000
    39 H8     100.6803 101.1039  79.4376   H         1 RES1   0.0000
    40 H9     102.5621  98.8118  79.5410   H         1 RES1   0.0000
    41 H10    104.4380 101.9413  77.6589   H         1 RES1   0.0000
    42 H11    108.6601 101.1756  80.8900   H         1 RES1   0.0000
    43 H12    107.2969 102.5644  81.7660   H         1 RES1   0.0000
    44 H13    101.1921  97.0138  79.6650   H         1 RES1   0.0000
    45 H14     99.4813  96.0549  79.4147   H         1 RES1   0.0000
    46 H15     93.5462 100.7399  74.3511   H         1 RES1   0.0000
    47 H16     93.2920  99.2093  75.2307   H         1 RES1   0.0000
    48 ****    95.3626 102.1247  75.0020   Du        1 RES1   7.6250
    49 ****    97.8889 101.1157  78.0430   Du        1 RES1  22.7610
    50 ****    94.0175  97.8074  76.8937   Du        1 RES1  11.1470
    51 ****    98.2676 100.4321  78.8689   Du        1 RES1  22.8670
    52 ****    97.5166 100.4727  80.3184   Du        1 RES1  22.2910
    53 ****   103.2017  99.4909  82.8854   Du        1 RES1  30.2670
    54 ****   103.8480  98.5898  81.5549   Du        1 RES1  27.8300
    55 ****   103.6296  99.8813  79.0400   Du        1 RES1  29.3690
    56 ****   102.0285 100.1878  78.9440   Du        1 RES1  29.3690
    57 ****   104.9405 103.9474  79.9681   Du        1 RES1  30.9350
    58 ****   106.4247 103.1115  79.6543   Du        1 RES1  26.6280
    59 ****   103.0852 102.2713  78.4256   Du        1 RES1  31.1390
    60 ****   103.6003 100.7307  78.2587   Du        1 RES1  31.1390
    61 ****   106.6974  99.3539  82.9017   Du        1 RES1  30.7470
    62 ****   105.2547  99.1711  81.9608   Du        1 RES1  30.7470
    63 ****   108.2387 100.0125  79.8877   Du        1 RES1  22.3410
    64 ****   108.5318  99.6955  81.4626   Du        1 RES1  10.5910
    65 ****   106.2477 101.9785  82.8106   Du        1 RES1  30.7470
    66 ****   105.7513 102.6015  81.3851   Du        1 RES1  28.9400
    67 ****   100.3393  97.2787  80.9794   Du        1 RES1  21.8730
    68 ****   101.5992  98.2412  80.5884   Du        1 RES1  25.4590
    69 ****    97.9917  95.9545  78.8654   Du        1 RES1  20.8900
    70 ****    98.2926  96.4880  80.3791   Du        1 RES1  20.9800
@<TRIPOS>BOND
     1     1     2   ar
     2     2     3   ar
     3     3     4   ar
     4     4     5   ar
     5     5     6   ar
     6     1     6   ar
     7     5     7   ar
     8     7     8   ar
     9     8     9   ar
    10     4     9   ar
    11     7    10    1
    12    10    11    1
    13    11    12    1
    14    12    13    1
    15    13    14    1
    16    10    14    1
    17    13    15    1
    18    15    16    1
    19    16    17    1
    20    17    18    2
    21    17    19    1
    22    17    20    1
    23    20    21    1
    24    21    22    2
    25    21    23    1
    26    21    24    1
    27    24    25    1
    28    25    26    2
    29    25    27    1
    30    25    28    1
    31    12    29    1
    32    11    30    1
    33     3    31    1
    34     1    32    1
    35     8    33    1
    36    10    34    1
    37    11    35    1
    38    12    36    1
    39    13    37    1
    40    15    38    1
    41    15    39    1
    42    19    40    1
    43    23    41    1
    44    27    42    1
    45    28    43    1
    46    29    44    1
    47    30    45    1
    48    31    46    1
    49    31    47    1
    50     2    48    1
    51     6    49    1
    52     9    50    1
    53    14    51    1
    54    14    52    1
    55    18    53    1
    56    18    54    1
    57    19    55    1
    58    19    56    1
    59    22    57    1
    60    22    58    1
    61    23    59    1
    62    23    60    1
    63    26    61    1
    64    26    62    1
    65    27    63    1
    66    27    64    1
    67    28    65    1
    68    28    66    1
    69    29    67    1
    70    29    68    1
    71    30    69    1
    72    30    70    1
@<TRIPOS>SUBSTRUCTURE
     1 RES1        1 GROUP             0 ****  ****    0  
@<TRIPOS>MOLECULE
14.8612340156
    70    72     1     0     0
SMALL
USER_CHARGES
****
Generated from the CSD

@<TRIPOS>ATOM
     1 C       94.7988  97.2593  81.3012   C.ar      1 RES1  20.5070
     2 N       94.3661  96.2721  82.1191   N.ar      1 RES1  18.7810
     3 C       95.2229  95.4063  82.7004   C.ar      1 RES1  19.8270
     4 C       96.5773  95.5728  82.4245   C.ar      1 RES1  20.4810
     5 C       96.9924  96.5981  81.5898   C.ar      1 RES1  20.8900
     6 N       96.1087  97.4400  81.0276   N.ar      1 RES1  22.2910
     7 N       98.3317  96.5136  81.5169   N.ar      1 RES1  20.9800
     8 C       98.7537  95.4702  82.2601   C.ar      1 RES1  20.4810
     9 N       97.6703  94.8968  82.8242   N.ar      1 RES1  20.6200
    10 C       99.1196  97.3259  80.7589   C.3       1 RES1  22.2270
    11 C       98.3817  97.8502  79.5087   C.3       1 RES1  20.8900
    12 C       98.8650  99.3128  79.3781   C.3       1 RES1  22.8670
    13 C       99.9359  99.4415  80.4822   C.3       1 RES1  22.7010
    14 O       99.4665  98.5192  81.4676   O.3       1 RES1  21.3640
    15 C      100.0371 100.8673  81.0586   C.3       1 RES1  22.7010
    16 O      101.0076 100.8810  82.1094   O.3       1 RES1  21.9430
    17 P      102.5718 101.0521  81.8214   P.3       1 RES1  32.3700
    18 O      102.7776 102.1880  80.8794   O.2       1 RES1  32.3700
    19 O      103.3140 101.3776  83.2012   O.3       1 RES1   0.0000
    20 O      103.1398  99.7122  81.1502   O.3       1 RES1  20.2030
    21 P      104.7281  99.5681  81.3023   P.3       1 RES1  30.7470
    22 O      105.2906  98.7776  80.1714   O.2       1 RES1  28.9270
    23 O      105.0737  98.8448  82.6879   O.3       1 RES1   0.0000
    24 O      105.4045 101.0191  81.3232   O.3       1 RES1  37.2370
    25 P      105.7455 101.5264  79.8435   P.3       1 RES1  29.2050
    26 O      106.2206 102.9370  79.9103   O.2       1 RES1  26.6280
    27 O      106.8936 100.6151  79.2012   O.3       1 RES1   4.1670
    28 O      104.4294 101.4631  78.9359   O.3       1 RES1  30.7720
    29 O       99.3847  99.6121  78.0764   O.3       1 RES1  27.8160
    30 O       98.7185  97.0622  78.3610   O.3       1 RES1  26.0470
    31 N       94.7898  94.4199  83.5145   N.pl3     1 RES1  32.4380
    32 H1      94.0714  97.9255  80.8516   H         1 RES1   0.0000
    33 H2      99.7808  95.1457  82.3838   H         1 RES1   0.0000
    34 H3     100.0450  96.8133  80.4535   H         1 RES1   0.0000
    35 H4      97.2935  97.8341  79.6787   H         1 RES1   0.0000
    36 H5      98.0213  99.9833  79.6014   H         1 RES1   0.0000
    37 H6     100.9154  99.1056  80.1084   H         1 RES1   0.0000
    38 H7      99.0585 101.1906  81.4436   H         1 RES1   0.0000
    39 H8     100.3582 101.5517  80.2608   H         1 RES1   0.0000
    40 H9     104.0576 101.9463  83.0383   H         1 RES1   0.0000
    41 H10    105.5767  99.4243  83.2466   H         1 RES1   0.0000
    42 H11    107.0046  99.8290  79.7226   H         1 RES1   0.0000
    43 H12    104.4956 102.1021  78.2361   H         1 RES1   0.0000
    44 H13    100.1772  99.1165  77.9043   H         1 RES1   0.0000
    45 H14     99.6227  96.7733  78.4124   H         1 RES1   0.0000
    46 H15     93.7834  94.3118  83.7071   H         1 RES1   0.0000
    47 H16     95.4672  93.7736  83.9438   H         1 RES1   0.0000
    48 ****    93.3863  96.1816  82.2975   Du        1 RES1  18.4720
    49 ****    96.4121  98.1780  80.4248   Du        1 RES1  22.2910
    50 ****    97.6781  94.1049  83.4348   Du        1 RES1  20.7140
    51 ****    98.6649  98.8901  81.9365   Du        1 RES1  22.2910
    52 ****   100.1856  98.3295  82.1362   Du        1 RES1  21.3640
    53 ****   103.0208 103.0918  81.2315   Du        1 RES1  32.3700
    54 ****   102.6726 102.0465  79.8950   Du        1 RES1  32.3700
    55 ****   103.6320 100.5255  83.6168   Du        1 RES1  30.7470
    56 ****   102.6765 101.8337  83.8221   Du        1 RES1  23.1990
    57 ****   105.3141  97.7792  80.2222   Du        1 RES1  23.3900
    58 ****   105.6445  99.2456  79.3615   Du        1 RES1  26.0850
    59 ****   105.6068  98.0188  82.5046   Du        1 RES1  23.3900
    60 ****   104.2230  98.5965  83.1513   Du        1 RES1  27.8300
    61 ****   106.7039 103.3392  79.1326   Du        1 RES1  24.6470
    62 ****   106.0563 103.4815  80.7328   Du        1 RES1  24.6470
    63 ****   107.7529 101.1263  79.1823   Du        1 RES1  22.3410
    64 ****   106.6355 100.3625  78.2687   Du        1 RES1  24.4000
    65 ****   103.6273 101.6659  79.4976   Du        1 RES1  32.3700
    66 ****   104.3389 100.5477  78.5438   Du        1 RES1  31.1390
    67 ****    99.5919 100.5890  78.0236   Du        1 RES1  23.0640
    68 ****    98.6975  99.3795  77.3883   Du        1 RES1  22.8670
    69 ****    98.5947  97.6126  77.5353   Du        1 RES1  17.0540
    70 ****    98.1186  96.2631  78.3220   Du        1 RES1  20.8900
@<TRIPOS>BOND
     1     1     2   ar
     2     2     3   ar
     3     3     4   ar
     4     4     5   ar
     5     5     6   ar
     6     1     6   ar
     7     5     7   ar
     8     7     8   ar
     9     8     9   ar
    10     4     9   ar
    11     7    10    1
    12    10    11    1
    13    11    12    1
    14    12    13    1
    15    13    14    1
    16    10    14    1
    17    13    15    1
    18    15    16    1
    19    16    17    1
    20    17    18    2
    21    17    19    1
    22    17    20    1
    23    20    21    1
    24    21    22    2
    25    21    23    1
    26    21    24    1
    27    24    25    1
    28    25    26    2
    29    25    27    1
    30    25    28    1
    31    12    29    1
    32    11    30    1
    33     3    31    1
    34     1    32    1
    35     8    33    1
    36    10    34    1
    37    11    35    1
    38    12    36    1
    39    13    37    1
    40    15    38    1
    41    15    39    1
    42    19    40    1
    43    23    41    1
    44    27    42    1
    45    28    43    1
    46    29    44    1
    47    30    45    1
    48    31    46    1
    49    31    47    1
    50     2    48    1
    51     6    49    1
    52     9    50    1
    53    14    51    1
    54    14    52    1
    55    18    53    1
    56    18    54    1
    57    19    55    1
    58    19    56    1
    59    22    57    1
    60    22    58    1
    61    23    59    1
    62    23    60    1
    63    26    61    1
    64    26    62    1
    65    27    63    1
    66    27    64    1
    67    28    65    1
    68    28    66    1
    69    29    67    1
    70    29    68    1
    71    30    69    1
    72    30    70    1
@<TRIPOS>SUBSTRUCTURE
     1 RES1        1 GROUP             0 ****  ****    0  
@<TRIPOS>MOLECULE
14.7113828101
    70    72     1     0     0
SMALL
USER_CHARGES
****
Generated from the CSD

@<TRIPOS>ATOM
     1 C       95.6363 100.3900  79.3443   C.ar      1 RES1  21.1340
     2 N       94.3432 100.0025  79.4372   N.ar      1 RES1  18.9800
     3 C       93.9718  98.9470  80.1919   C.ar      1 RES1  15.8540
     4 C       94.9783  98.2711  80.8762   C.ar      1 RES1  20.5070
     5 C       96.2931  98.6957  80.7692   C.ar      1 RES1  22.2910
     6 N       96.6247  99.7508  80.0060   N.ar      1 RES1  21.9870
     7 N       97.0259  97.8675  81.5330   N.ar      1 RES1  22.2910
     8 C       96.2173  96.9440  82.0918   C.ar      1 RES1  22.2270
     9 N       94.9546  97.2000  81.6908   N.ar      1 RES1  20.5070
    10 C       98.3803  97.9287  81.6640   C.3       1 RES1  22.2910
    11 C       99.1083  97.5654  80.3523   C.3       1 RES1  21.1430
    12 C      100.3001  98.5490  80.3042   C.3       1 RES1  21.8730
    13 C      100.2181  99.2855  81.6582   C.3       1 RES1  22.7010
    14 O       98.8151  99.2656  81.9288   O.3       1 RES1  22.2270
    15 C      100.7509 100.7300  81.5903   C.3       1 RES1  28.5050
    16 O      101.9013 100.7666  80.7410   O.3       1 RES1  16.9130
    17 P      102.8800 102.0309  80.6873   P.3       1 RES1  32.3700
    18 O      103.0095 102.4936  79.2769   O.2       1 RES1  32.3700
    19 O      102.2452 103.2077  81.5663   O.3       1 RES1  14.6770
    20 O      104.3276 101.6075  81.2293   O.3       1 RES1  40.3360
    21 P      105.3688 101.3100  80.0485   P.3       1 RES1  29.2050
    22 O      106.2230 102.5040  79.7936   O.2       1 RES1  27.7990
    23 O      104.5742 100.9227  78.7140   O.3       1 RES1  30.7720
    24 O      106.2980 100.0681  80.4454   O.3       1 RES1  29.0040
    25 P      105.9404  99.5131  81.9039   P.3       1 RES1  30.7470
    26 O      106.0033 100.6363  82.8808   O.2       1 RES1  30.7470
    27 O      104.4647  98.8939  81.9096   O.3       1 RES1   2.0420
    28 O      107.0015  98.3937  82.3291   O.3       1 RES1   0.0000
    29 O      101.5583  97.8887  80.1176   O.3       1 RES1  27.8160
    30 O       99.5334  96.1979  80.3775   O.3       1 RES1  15.0040
    31 N       92.6813  98.5596  80.2820   N.pl3     1 RES1   7.1150
    32 H1      95.8863 101.2396  78.7193   H         1 RES1   0.0000
    33 H2      96.5241  96.1363  82.7468   H         1 RES1   0.0000
    34 H3      98.7332  97.2738  82.4756   H         1 RES1   0.0000
    35 H4      98.4457  97.7451  79.4909   H         1 RES1   0.0000
    36 H5     100.1335  99.2636  79.4840   H         1 RES1   0.0000
    37 H6     100.7461  98.7154  82.4382   H         1 RES1   0.0000
    38 H7     101.0138 101.0846  82.5981   H         1 RES1   0.0000
    39 H8      99.9696 101.3782  81.1691   H         1 RES1   0.0000
    40 H9     101.3216 103.2973  81.3621   H         1 RES1   0.0000
    41 H10    104.9465 101.3725  77.9656   H         1 RES1   0.0000
    42 H11    104.2533  98.5678  81.0428   H         1 RES1   0.0000
    43 H12    107.8546  98.7942  82.4483   H         1 RES1   0.0000
    44 H13    101.4590  97.1140  79.5760   H         1 RES1   0.0000
    45 H14    100.0884  96.0105  79.6287   H         1 RES1   0.0000
    46 H15     91.9498  99.0718  79.7681   H         1 RES1   0.0000
    47 H16     92.4277  97.7497  80.8656   H         1 RES1   0.0000
    48 ****    93.6448 100.5112  78.9338   Du        1 RES1   7.8700
    49 ****    97.5748 100.0535  79.9304   Du        1 RES1  22.0810
    50 ****    94.1404  96.6824  81.9539   Du        1 RES1  17.5250
    51 ****    98.3373  99.9107  81.3326   Du        1 RES1  22.2910
    52 ****    98.6423  99.5041  82.8844   Du        1 RES1  22.2910
    53 ****   102.7979 103.4419  79.0404   Du        1 RES1  31.5030
    54 ****   103.3080 101.8559  78.5669   Du        1 RES1  31.1390
    55 ****   102.7156 104.0662  81.3618   Du        1 RES1  30.9350
    56 ****   102.3518 102.9922  82.5369   Du        1 RES1  32.3700
    57 ****   105.8311 103.4218  79.8566   Du        1 RES1  24.6470
    58 ****   107.1882 102.3874  79.5594   Du        1 RES1  26.6280
    59 ****   103.6147 101.1862  78.8133   Du        1 RES1  31.5030
    60 ****   104.6353  99.9351  78.5688   Du        1 RES1  28.8240
    61 ****   105.7446 100.4844  83.8347   Du        1 RES1  27.9520
    62 ****   106.3043 101.5421  82.5825   Du        1 RES1  30.7470
    63 ****   103.8076  99.6019  82.1684   Du        1 RES1  30.7470
    64 ****   104.4215  98.1423  82.5678   Du        1 RES1  25.4590
    65 ****   107.0570  97.6981  81.6128   Du        1 RES1  11.2060
    66 ****   106.7109  97.9675  83.1858   Du        1 RES1  20.9010
    67 ****   101.9221  97.6198  81.0095   Du        1 RES1  22.3720
    68 ****   102.1957  98.5186  79.6739   Du        1 RES1  25.8020
    69 ****    98.7304  95.6024  80.3500   Du        1 RES1  20.8900
    70 ****   100.0461  96.0273  81.2189   Du        1 RES1  20.9800
@<TRIPOS>BOND
     1     1     2   ar
     2     2     3   ar
     3     3     4   ar
     4     4     5   ar
     5     5     6   ar
     6     1     6   ar
     7     5     7   ar
     8     7     8   ar
     9     8     9   ar
    10     4     9   ar
    11     7    10    1
    12    10    11    1
    13    11    12    1
    14    12    13    1
    15    13    14    1
    16    10    14    1
    17    13    15    1
    18    15    16    1
    19    16    17    1
    20    17    18    2
    21    17    19    1
    22    17    20    1
    23    20    21    1
    24    21    22    2
    25    21    23    1
    26    21    24    1
    27    24    25    1
    28    25    26    2
    29    25    27    1
    30    25    28    1
    31    12    29    1
    32    11    30    1
    33     3    31    1
    34     1    32    1
    35     8    33    1
    36    10    34    1
    37    11    35    1
    38    12    36    1
    39    13    37    1
    40    15    38    1
    41    15    39    1
    42    19    40    1
    43    23    41    1
    44    27    42    1
    45    28    43    1
    46    29    44    1
    47    30    45    1
    48    31    46    1
    49    31    47    1
    50     2    48    1
    51     6    49    1
    52     9    50    1
    53    14    51    1
    54    14    52    1
    55    18    53    1
    56    18    54    1
    57    19    55    1
    58    19    56    1
    59    22    57    1
    60    22    58    1
    61    23    59    1
    62    23    60    1
    63    26    61    1
    64    26    62    1
    65    27    63    1
    66    27    64    1
    67    28    65    1
    68    28    66    1
    69    29    67    1
    70    29    68    1
    71    30    69    1
    72    30    70    1
@<TRIPOS>SUBSTRUCTURE
     1 RES1        1 GROUP             0 ****  ****    0  
@<TRIPOS>MOLECULE
14.6196381995
    70    72     1     0     0
SMALL
USER_CHARGES
****
Generated from the CSD

@<TRIPOS>ATOM
     1 C       94.6039 100.5183  80.0323   C.ar      1 RES1  18.9800
     2 N       93.3959 100.4846  80.6409   N.ar      1 RES1   7.7500
     3 C       92.9569  99.3826  81.2847   C.ar      1 RES1  10.3460
     4 C       93.8030  98.2771  81.2990   C.ar      1 RES1  15.8540
     5 C       95.0383  98.3433  80.6745   C.ar      1 RES1  20.8150
     6 N       95.4404  99.4583  80.0416   N.ar      1 RES1  21.1340
     7 N       95.6240  97.1475  80.8574   N.ar      1 RES1  22.1840
     8 C       94.7930  96.3462  81.5550   C.ar      1 RES1  19.8270
     9 N       93.6743  97.0480  81.8320   N.ar      1 RES1  16.4660
    10 C       96.8417  96.7962  80.3585   C.3       1 RES1  22.1840
    11 C       97.2870  97.7218  79.2063   C.3       1 RES1  20.8900
    12 C       98.8045  97.9022  79.4400   C.3       1 RES1  20.0310
    13 C       99.1057  96.9536  80.6198   C.3       1 RES1  21.1430
    14 O       97.8705  96.9631  81.3384   O.3       1 RES1  22.2270
    15 C      100.2677  97.4447  81.5050   C.3       1 RES1  21.8730
    16 O      100.4890  98.8365  81.2596   O.3       1 RES1  25.9170
    17 P      101.9583  99.4647  81.1840   P.3       1 RES1  29.2970
    18 O      102.7634  98.9737  82.3375   O.2       1 RES1  30.2670
    19 O      102.6506  98.9860  79.8231   O.3       1 RES1  26.2200
    20 O      101.8595 101.0623  81.2631   O.3       1 RES1  21.9430
    21 P      103.0562 101.7961  80.4911   P.3       1 RES1  32.3700
    22 O      103.0211 103.2632  80.7493   O.2       1 RES1  32.3700
    23 O      102.9307 101.5239  78.9187   O.3       1 RES1  33.4300
    24 O      104.4608 101.2048  80.9818   O.3       1 RES1  40.3360
    25 P      105.6512 101.6368  80.0022   P.3       1 RES1  29.2050
    26 O      105.6239 103.1161  79.8262   O.2       1 RES1  28.2310
    27 O      107.0605 101.2081  80.6277   O.3       1 RES1   4.1670
    28 O      105.4546 100.9394  78.5758   O.3       1 RES1  26.3160
    29 O       99.5861  97.5941  78.2789   O.3       1 RES1  27.8160
    30 O       97.0006  97.1179  77.9395   O.3       1 RES1  11.7420
    31 N       91.7501  99.3491  81.8896   N.pl3     1 RES1   5.7920
    32 H1      94.9094 101.4242  79.5214   H         1 RES1   0.0000
    33 H2      94.9858  95.3188  81.8429   H         1 RES1   0.0000
    34 H3      96.8460  95.7503  80.0145   H         1 RES1   0.0000
    35 H4      96.7816  98.6970  79.2891   H         1 RES1   0.0000
    36 H5      98.9920  98.9429  79.7452   H         1 RES1   0.0000
    37 H6      99.3038  95.9348  80.2526   H         1 RES1   0.0000
    38 H7     101.1807  96.8722  81.2836   H         1 RES1   0.0000
    39 H8      99.9961  97.3023  82.5604   H         1 RES1   0.0000
    40 H9     102.4705  99.6148  79.1340   H         1 RES1   0.0000
    41 H10    103.2752 100.6659  78.7035   H         1 RES1   0.0000
    42 H11    107.6152 101.9741  80.7167   H         1 RES1   0.0000
    43 H12    105.4445 101.6035  77.8966   H         1 RES1   0.0000
    44 H13    100.0794  96.7914  78.4041   H         1 RES1   0.0000
    45 H14     97.6501  97.3771  77.2955   H         1 RES1   0.0000
    46 H15     91.1371 100.1770  81.8684   H         1 RES1   0.0000
    47 H16     91.4414  98.4936  82.3731   H         1 RES1   0.0000
    48 ****    92.8135 101.2970  80.6130   Du        1 RES1   2.9220
    49 ****    96.3321  99.5018  79.5912   Du        1 RES1  21.9870
    50 ****    92.8847  96.7123  82.3455   Du        1 RES1  18.4720
    51 ****    97.7549  97.8326  81.8187   Du        1 RES1  22.2910
    52 ****    97.8468  96.2121  81.9982   Du        1 RES1  20.9800
    53 ****   102.9747  99.5883  83.0975   Du        1 RES1  30.2670
    54 ****   103.0926  98.0295  82.3517   Du        1 RES1  25.4590
    55 ****   102.2863  98.0923  79.5613   Du        1 RES1  25.4590
    56 ****   103.6388  98.9162  79.9595   Du        1 RES1  28.9270
    57 ****   103.8014 103.7133  81.1834   Du        1 RES1  32.3700
    58 ****   102.2172 103.7977  80.4884   Du        1 RES1  30.9350
    59 ****   103.4472 102.2208  78.4212   Du        1 RES1  31.1390
    60 ****   101.9679 101.5689  78.6522   Du        1 RES1  31.1390
    61 ****   106.3408 103.5700  79.2970   Du        1 RES1  24.6470
    62 ****   104.8886 103.6550  80.2372   Du        1 RES1  32.3700
    63 ****   107.5038 100.5441  80.0256   Du        1 RES1  26.6280
    64 ****   106.9141 100.7967  81.5273   Du        1 RES1  27.4490
    65 ****   104.5886 100.4395  78.5659   Du        1 RES1  31.1390
    66 ****   106.2084 100.3037  78.4090   Du        1 RES1  24.5750
    67 ****   100.2226  98.3453  78.1042   Du        1 RES1  23.6460
    68 ****    98.9764  97.4844  77.4939   Du        1 RES1  18.2700
    69 ****    96.0955  97.4112  77.6314   Du        1 RES1  16.4110
    70 ****    97.0128  96.1229  78.0382   Du        1 RES1  20.0310
@<TRIPOS>BOND
     1     1     2   ar
     2     2     3   ar
     3     3     4   ar
     4     4     5   ar
     5     5     6   ar
     6     1     6   ar
     7     5     7   ar
     8     7     8   ar
     9     8     9   ar
    10     4     9   ar
    11     7    10    1
    12    10    11    1
    13    11    12    1
    14    12    13    1
    15    13    14    1
    16    10    14    1
    17    13    15    1
    18    15    16    1
    19    16    17    1
    20    17    18    2
    21    17    19    1
    22    17    20    1
    23    20    21    1
    24    21    22    2
    25    21    23    1
    26    21    24    1
    27    24    25    1
    28    25    26    2
    29    25    27    1
    30    25    28    1
    31    12    29    1
    32    11    30    1
    33     3    31    1
    34     1    32    1
    35     8    33    1
    36    10    34    1
    37    11    35    1
    38    12    36    1
    39    13    37    1
    40    15    38    1
    41    15    39    1
    42    19    40    1
    43    23    41    1
    44    27    42    1
    45    28    43    1
    46    29    44    1
    47    30    45    1
    48    31    46    1
    49    31    47    1
    50     2    48    1
    51     6    49    1
    52     9    50    1
    53    14    51    1
    54    14    52    1
    55    18    53    1
    56    18    54    1
    57    19    55    1
    58    19    56    1
    59    22    57    1
    60    22    58    1
    61    23    59    1
    62    23    60    1
    63    26    61    1
    64    26    62    1
    65    27    63    1
    66    27    64    1
    67    28    65    1
    68    28    66    1
    69    29    67    1
    70    29    68    1
    71    30    69    1
    72    30    70    1
@<TRIPOS>SUBSTRUCTURE
     1 RES1        1 GROUP             0 ****  ****    0  
@<TRIPOS>MOLECULE
14.5103616512
    70    72     1     0     0
SMALL
USER_CHARGES
****
Generated from the CSD

@<TRIPOS>ATOM
     1 C       94.0710  98.8362  79.3923   C.ar      1 RES1  14.5380
     2 N       92.9496  98.1896  79.7861   N.ar      1 RES1  14.3530
     3 C       92.9773  97.2451  80.7500   C.ar      1 RES1  17.3750
     4 C       94.2126  96.9637  81.3269   C.ar      1 RES1  17.3750
     5 C       95.3431  97.6480  80.9095   C.ar      1 RES1  22.2910
     6 N       95.2764  98.5812  79.9451   N.ar      1 RES1  21.1340
     7 N       96.3680  97.1742  81.6385   N.ar      1 RES1  22.2270
     8 C       95.9155  96.2176  82.4748   C.ar      1 RES1  19.8270
     9 N       94.5851  96.0954  82.2854   N.ar      1 RES1  19.0940
    10 C       97.6647  97.5673  81.5002   C.3       1 RES1  22.2910
    11 C       98.3590  96.8727  80.3094   C.3       1 RES1  22.1840
    12 C       99.2434  97.9825  79.6961   C.3       1 RES1  20.0310
    13 C       99.0759  99.1635  80.6759   C.3       1 RES1  21.5210
    14 O       97.7525  98.9574  81.1742   O.3       1 RES1  22.2910
    15 C       99.2039 100.5373  79.9893   C.3       1 RES1  22.0810
    16 O      100.5892 100.8431  79.8060   O.3       1 RES1  15.9680
    17 P      101.3450 100.5720  78.4224   P.3       1 RES1  31.1390
    18 O      102.0914  99.2857  78.5130   O.2       1 RES1  23.6620
    19 O      100.2549 100.4616  77.2563   O.3       1 RES1  23.8980
    20 O      102.3867 101.7575  78.1430   O.3       1 RES1  23.7780
    21 P      103.4746 101.9140  79.3086   P.3       1 RES1  32.3700
    22 O      102.8776 101.5674  80.6290   O.2       1 RES1  32.3700
    23 O      104.0159 103.4201  79.3421   O.3       1 RES1  33.4300
    24 O      104.7202 100.9503  79.0204   O.3       1 RES1  40.3360
    25 P      105.8987 101.1860  80.0780   P.3       1 RES1  28.7730
    26 O      105.4239 100.7864  81.4326   O.2       1 RES1  30.7470
    27 O      107.1736 100.3017  79.6861   O.3       1 RES1   4.1670
    28 O      106.2982 102.7351  80.1027   O.3       1 RES1  11.4170
    29 O      100.6125  97.5848  79.5501   O.3       1 RES1  27.8160
    30 O       99.1287  95.7528  80.7621   O.3       1 RES1  10.4260
    31 N       91.8580  96.5986  81.1405   N.pl3     1 RES1  13.0770
    32 H1      93.9995  99.5819  78.6088   H         1 RES1   0.0000
    33 H2      96.5124  95.6449  83.1758   H         1 RES1   0.0000
    34 H3      98.2388  97.3822  82.4213   H         1 RES1   0.0000
    35 H4      97.6079  96.5485  79.5717   H         1 RES1   0.0000
    36 H5      98.8322  98.2567  78.7128   H         1 RES1   0.0000
    37 H6      99.7936  99.0784  81.5064   H         1 RES1   0.0000
    38 H7      98.7234 101.3137  80.6030   H         1 RES1   0.0000
    39 H8      98.7106 100.4922  79.0082   H         1 RES1   0.0000
    40 H9     100.6514 100.6929  76.4244   H         1 RES1   0.0000
    41 H10    104.4570 103.6308  78.5284   H         1 RES1   0.0000
    42 H11    107.9503 100.8486  79.6798   H         1 RES1   0.0000
    43 H12    105.5158 103.2628  80.2110   H         1 RES1   0.0000
    44 H13    100.6767  96.7320  79.1357   H         1 RES1   0.0000
    45 H14     99.7733  95.5086  80.1074   H         1 RES1   0.0000
    46 H15     90.9523  96.8200  80.7019   H         1 RES1   0.0000
    47 H16     91.9098  95.8819  81.8785   H         1 RES1   0.0000
    48 ****    92.0780  98.4172  79.3520   Du        1 RES1   5.3540
    49 ****    96.0946  99.0721  79.6458   Du        1 RES1  21.1340
    50 ****    93.9795  95.4671  82.7737   Du        1 RES1  18.4720
    51 ****    97.0775  99.1935  80.4752   Du        1 RES1  22.2910
    52 ****    97.5975  99.5157  81.9892   Du        1 RES1  22.2910
    53 ****   101.8198  98.5963  79.1846   Du        1 RES1  23.6460
    54 ****   102.8639  99.1117  77.9023   Du        1 RES1  23.6460
    55 ****    99.4978 101.0859  77.4487   Du        1 RES1  23.0640
    56 ****    99.9104  99.5239  77.2109   Du        1 RES1  23.6460
    57 ****   103.4499 101.1749  81.3490   Du        1 RES1  32.3700
    58 ****   101.9045 101.7272  80.7952   Du        1 RES1  32.3700
    59 ****   104.6585 103.5226  80.1015   Du        1 RES1  32.3700
    60 ****   103.2455 104.0445  79.4708   Du        1 RES1  30.9350
    61 ****   104.4437 100.7385  81.6248   Du        1 RES1  32.3700
    62 ****   106.0854 100.5661  82.1494   Du        1 RES1  30.7470
    63 ****   107.0378  99.9057  78.7780   Du        1 RES1  26.6280
    64 ****   107.2885  99.5680  80.3559   Du        1 RES1  23.2190
    65 ****   106.7469 102.9772  79.2425   Du        1 RES1  26.6280
    66 ****   106.9233 102.9058  80.8644   Du        1 RES1  26.6280
    67 ****   101.0390  97.5424  80.4536   Du        1 RES1  22.0940
    68 ****   101.0907  98.2589  78.9872   Du        1 RES1  23.6460
    69 ****    98.5181  94.9786  80.9285   Du        1 RES1  21.8640
    70 ****    99.5972  95.9963  81.6114   Du        1 RES1  20.9800
@<TRIPOS>BOND
     1     1     2   ar
     2     2     3   ar
     3     3     4   ar
     4     4     5   ar
     5     5     6   ar
     6     1     6   ar
     7     5     7   ar
     8     7     8   ar
     9     8     9   ar
    10     4     9   ar
    11     7    10    1
    12    10    11    1
    13    11    12    1
    14    12    13    1
    15    13    14    1
    16    10    14    1
    17    13    15    1
    18    15    16    1
    19    16    17    1
    20    17    18    2
    21    17    19    1
    22    17    20    1
    23    20    21    1
    24    21    22    2
    25    21    23    1
    26    21    24    1
    27    24    25    1
    28    25    26    2
    29    25    27    1
    30    25    28    1
    31    12    29    1
    32    11    30    1
    33     3    31    1
    34     1    32    1
    35     8    33    1
    36    10    34    1
    37    11    35    1
    38    12    36    1
    39    13    37    1
    40    15    38    1
    41    15    39    1
    42    19    40    1
    43    23    41    1
    44    27    42    1
    45    28    43    1
    46    29    44    1
    47    30    45    1
    48    31    46    1
    49    31    47    1
    50     2    48    1
    51     6    49    1
    52     9    50    1
    53    14    51    1
    54    14    52    1
    55    18    53    1
    56    18    54    1
    57    19    55    1
    58    19    56    1
    59    22    57    1
    60    22    58    1
    61    23    59    1
    62    23    60    1
    63    26    61    1
    64    26    62    1
    65    27    63    1
    66    27    64    1
    67    28    65    1
    68    28    66    1
    69    29    67    1
    70    29    68    1
    71    30    69    1
    72    30    70    1
@<TRIPOS>SUBSTRUCTURE
     1 RES1        1 GROUP             0 ****  ****    0  
@<TRIPOS>MOLECULE
14.1724041792
    70    72     1     0     0
SMALL
USER_CHARGES
****
Generated from the CSD

@<TRIPOS>ATOM
     1 C      104.1167 102.7248  78.9128   C.ar      1 RES1  31.5030
     2 N      105.3125 102.8850  79.5253   N.ar      1 RES1  28.2310
     3 C      105.6927 102.0995  80.5550   C.ar      1 RES1  30.7470
     4 C      104.8006 101.1111  80.9616   C.ar      1 RES1  32.3700
     5 C      103.5863 100.9645  80.3101   C.ar      1 RES1  32.3700
     6 N      103.2419 101.7675  79.2892   N.ar      1 RES1  32.3700
     7 N      102.9514  99.9428  80.9095   N.ar      1 RES1  31.9470
     8 C      103.7194  99.4666  81.9108   C.ar      1 RES1  30.7470
     9 N      104.8618 100.1843  81.9356   N.ar      1 RES1  31.9470
    10 C      101.7028  99.5075  80.5832   C.3       1 RES1  29.2970
    11 C      101.6496  97.9754  80.4033   C.3       1 RES1  25.4590
    12 C      100.2912  97.5754  81.0235   C.3       1 RES1  21.8730
    13 C       99.6385  98.9298  81.3729   C.3       1 RES1  21.5210
    14 O      100.7752  99.7521  81.6444   O.3       1 RES1  27.9720
    15 C       98.7051  98.8497  82.5966   C.3       1 RES1  22.2910
    16 O       97.4674  98.2494  82.2045   O.3       1 RES1  14.6710
    17 P       96.5252  98.8950  81.0844   P.3       1 RES1  22.2910
    18 O       95.1372  99.0082  81.6141   O.2       1 RES1  20.5070
    19 O       97.0718 100.3581  80.7364   O.3       1 RES1   9.5240
    20 O       96.5110  97.9496  79.7903   O.3       1 RES1  14.6710
    21 P       95.0341  97.6982  79.2227   P.3       1 RES1  18.7840
    22 O       94.2665  98.9747  79.1831   O.2       1 RES1  18.9800
    23 O       94.2719  96.6412  80.1522   O.3       1 RES1   3.5850
    24 O       95.1181  97.0840  77.7466   O.3       1 RES1   0.1540
    25 P       93.6973  96.5257  77.2640   P.3       1 RES1  12.6620
    26 O       93.8268  96.0009  75.8756   O.2       1 RES1   1.0770
    27 O       93.2147  95.3440  78.2294   O.3       1 RES1   2.5840
    28 O       92.6217  97.7100  77.2745   O.3       1 RES1   0.0000
    29 O       99.4833  96.7936  80.1348   O.3       1 RES1  27.8160
    30 O      101.7358  97.6306  79.0157   O.3       1 RES1  27.8160
    31 N      106.8852 102.2619  81.1671   N.pl3     1 RES1  40.3360
    32 H1     103.8529 103.3854  78.0949   H         1 RES1   0.0000
    33 H2     103.4664  98.6524  82.5805   H         1 RES1   0.0000
    34 H3     101.3341  99.9994  79.6697   H         1 RES1   0.0000
    35 H4     102.4679  97.5008  80.9677   H         1 RES1   0.0000
    36 H5     100.4799  97.0068  81.9468   H         1 RES1   0.0000
    37 H6      99.0993  99.3325  80.5016   H         1 RES1   0.0000
    38 H7      98.5250  99.8564  83.0023   H         1 RES1   0.0000
    39 H8      99.1810  98.2269  83.3671   H         1 RES1   0.0000
    40 H9      96.5874 100.7141  80.0006   H         1 RES1   0.0000
    41 H10     94.7949  95.8561  80.2572   H         1 RES1   0.0000
    42 H11     93.7800  95.3052  78.9918   H         1 RES1   0.0000
    43 H12     92.3082  97.8461  78.1608   H         1 RES1   0.0000
    44 H13    100.0243  96.2858  79.5409   H         1 RES1   0.0000
    45 H14    101.2008  96.8667  78.8313   H         1 RES1   0.0000
    46 H15    107.5327 102.9991  80.8526   H         1 RES1   0.0000
    47 H16    107.1482 101.6475  81.9509   H         1 RES1   0.0000
    48 ****   105.9305 103.6039  79.2070   Du        1 RES1  24.6470
    49 ****   102.3642 101.6593  78.8223   Du        1 RES1  31.5030
    50 ****   105.6238 100.0504  82.5692   Du        1 RES1  30.7470
    51 ****   101.1809  99.5044  82.5242   Du        1 RES1  26.2450
    52 ****   100.5107 100.7164  81.6591   Du        1 RES1  24.9120
    53 ****    94.6693  98.1982  81.9676   Du        1 RES1  18.0210
    54 ****    94.6736  99.8942  81.6161   Du        1 RES1  17.5770
    55 ****    98.0420 100.3031  80.5004   Du        1 RES1  22.2910
    56 ****    96.9553 100.9541  81.5309   Du        1 RES1  20.4220
    57 ****    94.7124  99.8342  79.4330   Du        1 RES1  18.9800
    58 ****    93.3055  98.9719  78.9067   Du        1 RES1  10.2500
    59 ****    93.3978  96.4010  79.7300   Du        1 RES1  18.5870
    60 ****    94.1072  97.0501  81.0498   Du        1 RES1  17.3750
    61 ****    93.0306  95.9851  75.2708   Du        1 RES1   0.0000
    62 ****    94.7099  95.6645  75.5486   Du        1 RES1   0.0000
    63 ****    93.2580  94.4741  77.7382   Du        1 RES1  12.6620
    64 ****    92.2737  95.5156  78.5211   Du        1 RES1  16.5270
    65 ****    91.8529  97.4670  76.6828   Du        1 RES1   0.1170
    66 ****    93.0479  98.5501  76.9391   Du        1 RES1   2.8710
    67 ****    98.8975  97.4046  79.6022   Du        1 RES1  20.0310
    68 ****    98.9143  96.1710  80.6721   Du        1 RES1  20.9800
    69 ****   102.6878  97.4303  78.7842   Du        1 RES1  23.6460
    70 ****   101.4134  98.4000  78.4642   Du        1 RES1  23.6460
@<TRIPOS>BOND
     1     1     2   ar
     2     2     3   ar
     3     3     4   ar
     4     4     5   ar
     5     5     6   ar
     6     1     6   ar
     7     5     7   ar
     8     7     8   ar
     9     8     9   ar
    10     4     9   ar
    11     7    10    1
    12    10    11    1
    13    11    12    1
    14    12    13    1
    15    13    14    1
    16    10    14    1
    17    13    15    1
    18    15    16    1
    19    16    17    1
    20    17    18    2
    21    17    19    1
    22    17    20    1
    23    20    21    1
    24    21    22    2
    25    21    23    1
    26    21    24    1
    27    24    25    1
    28    25    26    2
    29    25    27    1
    30    25    28    1
    31    12    29    1
    32    11    30    1
    33     3    31    1
    34     1    32    1
    35     8    33    1
    36    10    34    1
    37    11    35    1
    38    12    36    1
    39    13    37    1
    40    15    38    1
    41    15    39    1
    42    19    40    1
    43    23    41    1
    44    27    42    1
    45    28    43    1
    46    29    44    1
    47    30    45    1
    48    31    46    1
    49    31    47    1
    50     2    48    1
    51     6    49    1
    52     9    50    1
    53    14    51    1
    54    14    52    1
    55    18    53    1
    56    18    54    1
    57    19    55    1
    58    19    56    1
    59    22    57    1
    60    22    58    1
    61    23    59    1
    62    23    60    1
    63    26    61    1
    64    26    62    1
    65    27    63    1
    66    27    64    1
    67    28    65    1
    68    28    66    1
    69    29    67    1
    70    29    68    1
    71    30    69    1
    72    30    70    1
@<TRIPOS>SUBSTRUCTURE
     1 RES1        1 GROUP             0 ****  ****    0  
@<TRIPOS>MOLECULE
14.0984255659
    70    72     1     0     0
SMALL
USER_CHARGES
****
Generated from the CSD

@<TRIPOS>ATOM
     1 C      104.3751 102.5893  79.0128   C.ar      1 RES1  31.5030
     2 N      105.5289 102.5271  79.7168   N.ar      1 RES1  28.2310
     3 C      105.7316 101.5874  80.6642   C.ar      1 RES1  30.7470
     4 C      104.7007 100.6788  80.8871   C.ar      1 RES1  32.3700
     5 C      103.5333 100.7612  80.1450   C.ar      1 RES1  32.3700
     6 N      103.3673 101.7126  79.2106   N.ar      1 RES1  31.5030
     7 N      102.7378  99.7654  80.5712   N.ar      1 RES1  31.9470
     8 C      103.3628  99.0851  81.5540   C.ar      1 RES1  30.7470
     9 N      104.5757  99.6462  81.7412   N.ar      1 RES1  30.7470
    10 C      101.4768  99.5304  80.1133   C.3       1 RES1  29.2970
    11 C      101.2241  98.0308  79.8489   C.3       1 RES1  24.3780
    12 C       99.7699  97.8095  80.3247   C.3       1 RES1  20.9800
    13 C       99.2857  99.2300  80.6858   C.3       1 RES1  21.5210
    14 O      100.4966  99.8660  81.0998   O.3       1 RES1  24.9120
    15 C       98.2383  99.2390  81.8163   C.3       1 RES1  22.2910
    16 O       97.1723  98.3481  81.4756   O.3       1 RES1  15.2270
    17 P       95.8061  98.8653  80.8234   P.3       1 RES1  22.2910
    18 O       94.9063  99.3680  81.8993   O.2       1 RES1  20.5070
    19 O       96.1401 100.0657  79.8194   O.3       1 RES1   7.4220
    20 O       95.0831  97.6508  80.0678   O.3       1 RES1   7.1190
    21 P       93.5434  97.4926  80.4811   P.3       1 RES1  16.3630
    22 O       92.7548  98.6673  80.0138   O.2       1 RES1  14.3530
    23 O       93.4227  97.3627  82.0720   O.3       1 RES1  13.5310
    24 O       92.9423  96.1582  79.8320   O.3       1 RES1   0.0000
    25 P       91.3736  96.0226  80.1215   P.3       1 RES1  10.2110
    26 O       91.1097  94.7045  80.7642   O.2       1 RES1  15.6010
    27 O       90.8931  97.1914  81.1033   O.3       1 RES1   3.5880
    28 O       90.5631  96.1016  78.7444   O.3       1 RES1   0.0000
    29 O       98.9474  97.1898  79.3280   O.3       1 RES1  27.8160
    30 O      101.3921  97.7321  78.4582   O.3       1 RES1  27.8160
    31 N      106.8825 101.5277  81.3680   N.pl3     1 RES1  37.2370
    32 H1     104.2561 103.3670  78.2672   H         1 RES1   0.0000
    33 H2     102.9640  98.2378  82.1002   H         1 RES1   0.0000
    34 H3     101.2702 100.1065  79.1980   H         1 RES1   0.0000
    35 H4     101.9093  97.4199  80.4577   H         1 RES1   0.0000
    36 H5      99.7874  97.1836  81.2297   H         1 RES1   0.0000
    37 H6      98.8945  99.7411  79.7927   H         1 RES1   0.0000
    38 H7      97.8478 100.2571  81.9627   H         1 RES1   0.0000
    39 H8      98.7142  98.8949  82.7453   H         1 RES1   0.0000
    40 H9      96.5157 100.7922  80.3029   H         1 RES1   0.0000
    41 H10     92.5105  97.3344  82.3329   H         1 RES1   0.0000
    42 H11     91.2909  97.0728  81.9577   H         1 RES1   0.0000
    43 H12     91.0768  96.5749  78.1006   H         1 RES1   0.0000
    44 H13     99.4515  96.5787  78.8028   H         1 RES1   0.0000
    45 H14    101.0756  96.8561  78.2679   H         1 RES1   0.0000
    46 H15    107.6346 102.2090  81.1894   H         1 RES1   0.0000
    47 H16    107.0087 100.7995  82.0854   H         1 RES1   0.0000
    48 ****   106.2500 103.1944  79.5303   Du        1 RES1  26.6280
    49 ****   102.5229 101.7696  78.6779   Du        1 RES1  31.1390
    50 ****   105.2639  99.3461  82.4017   Du        1 RES1  30.7470
    51 ****   100.7774  99.5272  81.9977   Du        1 RES1  26.2450
    52 ****   100.3714 100.8573  81.1418   Du        1 RES1  24.9120
    53 ****    93.9304  99.4902  81.7184   Du        1 RES1  15.6820
    54 ****    95.2783  99.5831  82.8023   Du        1 RES1  22.2910
    55 ****    95.2994 100.3656  79.3685   Du        1 RES1  21.1340
    56 ****    96.7936  99.7512  79.1309   Du        1 RES1  22.2650
    57 ****    92.4452  99.3549  80.6705   Du        1 RES1   7.4040
    58 ****    92.5352  98.7680  79.0434   Du        1 RES1   3.1270
    59 ****    93.8642  98.1505  82.5015   Du        1 RES1  15.8540
    60 ****    93.8768  96.5229  82.3696   Du        1 RES1  18.4720
    61 ****    90.5671  94.0144  80.2852   Du        1 RES1  12.6410
    62 ****    91.4751  94.5100  81.6745   Du        1 RES1  18.3140
    63 ****    89.8975  97.1629  81.1928   Du        1 RES1   5.6140
    64 ****    91.1688  98.0762  80.7276   Du        1 RES1   5.7390
    65 ****    89.6966  96.5777  78.8946   Du        1 RES1   1.2690
    66 ****    90.3816  95.1764  78.4110   Du        1 RES1   2.5430
    67 ****    98.5669  97.8968  78.7319   Du        1 RES1  20.8900
    68 ****    98.2028  96.6973  79.7784   Du        1 RES1  20.9800
    69 ****   102.3623  97.7905  78.2232   Du        1 RES1  23.6460
    70 ****   100.8769  98.3943  77.9141   Du        1 RES1  23.6460
@<TRIPOS>BOND
     1     1     2   ar
     2     2     3   ar
     3     3     4   ar
     4     4     5   ar
     5     5     6   ar
     6     1     6   ar
     7     5     7   ar
     8     7     8   ar
     9     8     9   ar
    10     4     9   ar
    11     7    10    1
    12    10    11    1
    13    11    12    1
    14    12    13    1
    15    13    14    1
    16    10    14    1
    17    13    15    1
    18    15    16    1
    19    16    17    1
    20    17    18    2
    21    17    19    1
    22    17    20    1
    23    20    21    1
    24    21    22    2
    25    21    23    1
    26    21    24    1
    27    24    25    1
    28    25    26    2
    29    25    27    1
    30    25    28    1
    31    12    29    1
    32    11    30    1
    33     3    31    1
    34     1    32    1
    35     8    33    1
    36    10    34    1
    37    11    35    1
    38    12    36    1
    39    13    37    1
    40    15    38    1
    41    15    39    1
    42    19    40    1
    43    23    41    1
    44    27    42    1
    45    28    43    1
    46    29    44    1
    47    30    45    1
    48    31    46    1
    49    31    47    1
    50     2    48    1
    51     6    49    1
    52     9    50    1
    53    14    51    1
    54    14    52    1
    55    18    53    1
    56    18    54    1
    57    19    55    1
    58    19    56    1
    59    22    57    1
    60    22    58    1
    61    23    59    1
    62    23    60    1
    63    26    61    1
    64    26    62    1
    65    27    63    1
    66    27    64    1
    67    28    65    1
    68    28    66    1
    69    29    67    1
    70    29    68    1
    71    30    69    1
    72    30    70    1
@<TRIPOS>SUBSTRUCTURE
     1 RES1        1 GROUP             0 ****  ****    0  
@<TRIPOS>MOLECULE
13.6282978768
    70    72     1     0     0
SMALL
USER_CHARGES
****
Generated from the CSD

@<TRIPOS>ATOM
     1 C       99.4142 101.2596  77.2203   C.ar      1 RES1  23.0640
     2 N      100.2414 102.2235  76.7540   N.ar      1 RES1  23.8320
     3 C      101.5339 102.2945  77.1362   C.ar      1 RES1  25.4070
     4 C      101.9841 101.3292  78.0326   C.ar      1 RES1  30.6300
     5 C      101.1166 100.3487  78.4869   C.ar      1 RES1  28.0980
     6 N       99.8350 100.3114  78.0848   N.ar      1 RES1  23.6460
     7 N      101.8244  99.5685  79.3215   N.ar      1 RES1  29.2970
     8 C      103.0856 100.0386  79.4094   C.ar      1 RES1  31.9470
     9 N      103.1827 101.1198  78.6079   N.ar      1 RES1  31.1390
    10 C      101.3167  98.5080  80.0092   C.3       1 RES1  25.7650
    11 C      102.3539  97.8870  80.9690   C.3       1 RES1  25.4590
    12 C      101.5276  97.5237  82.2241   C.3       1 RES1  22.2370
    13 C      100.0760  97.8443  81.8088   C.3       1 RES1  21.3640
    14 O      100.2568  98.9148  80.8796   O.3       1 RES1  22.6210
    15 C       99.1935  98.2804  82.9946   C.3       1 RES1  22.2270
    16 O       98.0714  99.0163  82.4991   O.3       1 RES1  19.5530
    17 P       96.9364  98.3354  81.6007   P.3       1 RES1  22.2910
    18 O       97.5753  97.6078  80.4683   O.2       1 RES1  22.2910
    19 O       96.1278  97.2899  82.5027   O.3       1 RES1   5.8390
    20 O       95.9721  99.4709  81.0095   O.3       1 RES1  15.4930
    21 P       94.5147  98.9165  80.6420   P.3       1 RES1  18.9800
    22 O       93.9150  99.7183  79.5385   O.2       1 RES1  14.0790
    23 O       93.5699  98.9868  81.9323   O.3       1 RES1   5.8270
    24 O       94.6158  97.3841  80.1897   O.3       1 RES1   3.8620
    25 P       93.3634  96.5359  80.7141   P.3       1 RES1  18.5870
    26 O       92.1071  97.1708  80.2260   O.2       1 RES1  11.3470
    27 O       93.4442  95.0368  80.1597   O.3       1 RES1   8.3790
    28 O       93.3530  96.5242  82.3140   O.3       1 RES1  16.6030
    29 O      101.6922  96.1564  82.6210   O.3       1 RES1  13.6160
    30 O      102.9658  96.7387  80.3703   O.3       1 RES1  23.6200
    31 N      102.3579 103.2584  76.6721   N.pl3     1 RES1  33.4300
    32 H1      98.3819 101.2483  76.8898   H         1 RES1   0.0000
    33 H2     103.8827  99.6246  80.0166   H         1 RES1   0.0000
    34 H3     100.9364  97.7335  79.3253   H         1 RES1   0.0000
    35 H4     103.1183  98.6348  81.2333   H         1 RES1   0.0000
    36 H5     101.8311  98.1861  83.0489   H         1 RES1   0.0000
    37 H6      99.6264  96.9844  81.2886   H         1 RES1   0.0000
    38 H7      99.7754  98.9021  83.6913   H         1 RES1   0.0000
    39 H8      98.8347  97.3841  83.5199   H         1 RES1   0.0000
    40 H9      95.3451  97.7032  82.8480   H         1 RES1   0.0000
    41 H10     92.7386  98.5635  81.7564   H         1 RES1   0.0000
    42 H11     94.2506  94.9214  79.6711   H         1 RES1   0.0000
    43 H12     92.4959  96.7876  82.6276   H         1 RES1   0.0000
    44 H13    101.9568  96.0960  83.5318   H         1 RES1   0.0000
    45 H14    102.3528  96.3029  79.7890   H         1 RES1   0.0000
    46 H15    102.0069 103.9647  76.0092   H         1 RES1   0.0000
    47 H16    103.3397 103.2878  76.9819   H         1 RES1   0.0000
    48 ****    99.8859 102.9006  76.1096   Du        1 RES1  23.8320
    49 ****    99.2117  99.6029  78.4157   Du        1 RES1  22.8670
    50 ****   104.0047 101.6713  78.4657   Du        1 RES1  31.1390
    51 ****   100.5062  99.7547  81.3616   Du        1 RES1  24.9120
    52 ****    99.4176  99.0668  80.3574   Du        1 RES1  21.5210
    53 ****    98.4226  97.0977  80.6162   Du        1 RES1  22.1840
    54 ****    97.1568  97.6296  79.5603   Du        1 RES1  20.8900
    55 ****    96.7060  96.9876  83.2604   Du        1 RES1  22.2270
    56 ****    95.8688  96.5008  81.9456   Du        1 RES1  19.8270
    57 ****    94.5055 100.2273  78.9122   Du        1 RES1  18.9800
    58 ****    92.9219  99.7474  79.4241   Du        1 RES1   8.1740
    59 ****    93.4083  99.9444  82.1708   Du        1 RES1  10.1010
    60 ****    94.0201  98.5244  82.6961   Du        1 RES1  15.8540
    61 ****    91.9053  98.1226  80.4572   Du        1 RES1  11.4980
    62 ****    91.4656  96.6452  79.6672   Du        1 RES1   6.7580
    63 ****    92.6635  94.8610  79.5601   Du        1 RES1  16.5270
    64 ****    93.4257  94.3964  80.9275   Du        1 RES1  18.5870
    65 ****    94.0434  97.1614  82.6563   Du        1 RES1  16.4660
    66 ****    93.5588  95.6021  82.6418   Du        1 RES1  18.4720
    67 ****   102.3929  95.7315  82.0479   Du        1 RES1  20.1940
    68 ****   100.8247  95.6739  82.4997   Du        1 RES1  20.3500
    69 ****   103.2477  96.1030  81.0890   Du        1 RES1  21.5880
    70 ****   103.7678  97.0275  79.8474   Du        1 RES1  21.5880
@<TRIPOS>BOND
     1     1     2   ar
     2     2     3   ar
     3     3     4   ar
     4     4     5   ar
     5     5     6   ar
     6     1     6   ar
     7     5     7   ar
     8     7     8   ar
     9     8     9   ar
    10     4     9   ar
    11     7    10    1
    12    10    11    1
    13    11    12    1
    14    12    13    1
    15    13    14    1
    16    10    14    1
    17    13    15    1
    18    15    16    1
    19    16    17    1
    20    17    18    2
    21    17    19    1
    22    17    20    1
    23    20    21    1
    24    21    22    2
    25    21    23    1
    26    21    24    1
    27    24    25    1
    28    25    26    2
    29    25    27    1
    30    25    28    1
    31    12    29    1
    32    11    30    1
    33     3    31    1
    34     1    32    1
    35     8    33    1
    36    10    34    1
    37    11    35    1
    38    12    36    1
    39    13    37    1
    40    15    38    1
    41    15    39    1
    42    19    40    1
    43    23    41    1
    44    27    42    1
    45    28    43    1
    46    29    44    1
    47    30    45    1
    48    31    46    1
    49    31    47    1
    50     2    48    1
    51     6    49    1
    52     9    50    1
    53    14    51    1
    54    14    52    1
    55    18    53    1
    56    18    54    1
    57    19    55    1
    58    19    56    1
    59    22    57    1
    60    22    58    1
    61    23    59    1
    62    23    60    1
    63    26    61    1
    64    26    62    1
    65    27    63    1
    66    27    64    1
    67    28    65    1
    68    28    66    1
    69    29    67    1
    70    29    68    1
    71    30    69    1
    72    30    70    1
@<TRIPOS>SUBSTRUCTURE
     1 RES1        1 GROUP             0 ****  ****    0  
@<TRIPOS>MOLECULE
13.3597021972
    70    72     1     0     0
SMALL
USER_CHARGES
****
Generated from the CSD

@<TRIPOS>ATOM
     1 C       92.6922  99.1805  81.3276   C.ar      1 RES1  10.4380
     2 N       92.0320  99.8593  80.3611   N.ar      1 RES1   1.9890
     3 C       92.6748 100.3775  79.2933   C.ar      1 RES1   0.4100
     4 C       94.0515 100.1820  79.2256   C.ar      1 RES1  14.0790
     5 C       94.7000  99.4752  80.2258   C.ar      1 RES1  18.9800
     6 N       94.0258  98.9754  81.2752   N.ar      1 RES1  15.8540
     7 N       96.0011  99.4444  79.8905   N.ar      1 RES1  21.1340
     8 C       96.1795 100.1155  78.7342   C.ar      1 RES1  21.1340
     9 N       94.9746 100.5627  78.3232   N.ar      1 RES1  20.8150
    10 C       96.9821  98.8720  80.6423   C.3       1 RES1  22.2910
    11 C       97.6013  97.6396  79.9493   C.3       1 RES1  20.9800
    12 C       99.1074  97.7439  80.2821   C.3       1 RES1  21.1430
    13 C       99.1839  98.9467  81.2465   C.3       1 RES1  22.2270
    14 O       98.0934  99.7580  80.8051   O.3       1 RES1  22.2910
    15 C      100.5192  99.7102  81.1510   C.3       1 RES1  24.9120
    16 O      101.3981  99.0100  80.2659   O.3       1 RES1  18.0300
    17 P      102.7874  98.3899  80.7602   P.3       1 RES1  27.1270
    18 O      102.9849  98.7113  82.2016   O.2       1 RES1  27.1270
    19 O      102.7309  96.8006  80.5830   O.3       1 RES1  26.2200
    20 O      103.9884  99.0332  79.9161   O.3       1 RES1  18.7540
    21 P      104.9630  99.9344  80.8130   P.3       1 RES1  31.9470
    22 O      106.1864 100.3017  80.0457   O.2       1 RES1  28.7730
    23 O      105.3778  99.1302  82.1334   O.3       1 RES1   0.0000
    24 O      104.2023 101.2677  81.2680   O.3       1 RES1  37.2370
    25 P      104.2132 102.3716  80.1086   P.3       1 RES1  32.3700
    26 O      105.6153 102.8187  79.8757   O.2       1 RES1  28.2310
    27 O      103.6276 101.7518  78.7543   O.3       1 RES1  33.4300
    28 O      103.3330 103.6306  80.5555   O.3       1 RES1  30.7720
    29 O       99.6323  96.5440  80.8640   O.3       1 RES1  21.7150
    30 O       97.0157  96.4339  80.4542   O.3       1 RES1   7.4960
    31 N       92.0154 101.0569  78.3306   N.pl3     1 RES1   0.0000
    32 H1      92.1331  98.7894  82.1699   H         1 RES1   0.0000
    33 H2      97.1229 100.2715  78.2231   H         1 RES1   0.0000
    34 H3      96.6075  98.5865  81.6375   H         1 RES1   0.0000
    35 H4      97.4580  97.7081  78.8593   H         1 RES1   0.0000
    36 H5      99.6568  97.9762  79.3572   H         1 RES1   0.0000
    37 H6      98.9982  98.6214  82.2818   H         1 RES1   0.0000
    38 H7     100.9775  99.7981  82.1473   H         1 RES1   0.0000
    39 H8     100.3268 100.7151  80.7493   H         1 RES1   0.0000
    40 H9     102.0451  96.5714  79.9666   H         1 RES1   0.0000
    41 H10    106.2071  98.6870  82.0034   H         1 RES1   0.0000
    42 H11    103.8145 102.3369  78.0298   H         1 RES1   0.0000
    43 H12    103.1738 103.5903  81.4912   H         1 RES1   0.0000
    44 H13    100.2510  96.1238  80.2774   H         1 RES1   0.0000
    45 H14     97.0448  95.7507  79.7939   H         1 RES1   0.0000
    46 H15     90.9961 101.1919  78.3977   H         1 RES1   0.0000
    47 H16     92.5327 101.4415  77.5272   H         1 RES1   0.0000
    48 ****    91.0424  99.9802  80.4398   Du        1 RES1   0.0000
    49 ****    94.4975  98.4669  81.9956   Du        1 RES1  18.0210
    50 ****    94.7977 101.0873  77.4904   Du        1 RES1  20.8150
    51 ****    98.3174 100.1975  79.9353   Du        1 RES1  22.0810
    52 ****    97.8826 100.4577  81.4876   Du        1 RES1  22.2910
    53 ****   103.3905  98.0329  82.8141   Du        1 RES1  24.2490
    54 ****   102.7118  99.6055  82.5565   Du        1 RES1  29.2970
    55 ****   102.5395  96.3741  81.4670   Du        1 RES1  21.5880
    56 ****   103.6106  96.4730  80.2385   Du        1 RES1  21.5880
    57 ****   106.1576 101.0558  79.3896   Du        1 RES1  26.6280
    58 ****   107.0363  99.7939  80.1869   Du        1 RES1  26.6280
    59 ****   104.6718  98.4537  82.3428   Du        1 RES1  27.8300
    60 ****   105.4625  99.7708  82.8966   Du        1 RES1  30.7470
    61 ****   106.1717 102.3743  79.1736   Du        1 RES1  26.6280
    62 ****   105.9998 103.5632  80.4214   Du        1 RES1  24.6470
    63 ****   102.6382 101.6356  78.8418   Du        1 RES1  31.5030
    64 ****   104.0536 100.8634  78.5832   Du        1 RES1  31.1390
    65 ****   102.4599 103.6167  80.0681   Du        1 RES1  32.3700
    66 ****   103.8233 104.4743  80.3370   Du        1 RES1  27.0700
    67 ****    98.8785  95.9139  81.0503   Du        1 RES1  20.9800
    68 ****   100.0961  96.7713  81.7203   Du        1 RES1  20.9800
    69 ****    96.0638  96.6097  80.7052   Du        1 RES1  20.8900
    70 ****    97.5234  96.1338  81.2618   Du        1 RES1  20.9800
@<TRIPOS>BOND
     1     1     2   ar
     2     2     3   ar
     3     3     4   ar
     4     4     5   ar
     5     5     6   ar
     6     1     6   ar
     7     5     7   ar
     8     7     8   ar
     9     8     9   ar
    10     4     9   ar
    11     7    10    1
    12    10    11    1
    13    11    12    1
    14    12    13    1
    15    13    14    1
    16    10    14    1
    17    13    15    1
    18    15    16    1
    19    16    17    1
    20    17    18    2
    21    17    19    1
    22    17    20    1
    23    20    21    1
    24    21    22    2
    25    21    23    1
    26    21    24    1
    27    24    25    1
    28    25    26    2
    29    25    27    1
    30    25    28    1
    31    12    29    1
    32    11    30    1
    33     3    31    1
    34     1    32    1
    35     8    33    1
    36    10    34    1
    37    11    35    1
    38    12    36    1
    39    13    37    1
    40    15    38    1
    41    15    39    1
    42    19    40    1
    43    23    41    1
    44    27    42    1
    45    28    43    1
    46    29    44    1
    47    30    45    1
    48    31    46    1
    49    31    47    1
    50     2    48    1
    51     6    49    1
    52     9    50    1
    53    14    51    1
    54    14    52    1
    55    18    53    1
    56    18    54    1
    57    19    55    1
    58    19    56    1
    59    22    57    1
    60    22    58    1
    61    23    59    1
    62    23    60    1
    63    26    61    1
    64    26    62    1
    65    27    63    1
    66    27    64    1
    67    28    65    1
    68    28    66    1
    69    29    67    1
    70    29    68    1
    71    30    69    1
    72    30    70    1
@<TRIPOS>SUBSTRUCTURE
     1 RES1        1 GROUP             0 ****  ****    0  
@<TRIPOS>MOLECULE
13.295829707
    70    72     1     0     0
SMALL
USER_CHARGES
****
Generated from the CSD

@<TRIPOS>ATOM
     1 C       92.8961 101.1820  77.6364   C.ar      1 RES1   3.2480
     2 N       92.9868 101.7354  76.4050   N.ar      1 RES1   2.4410
     3 C       94.1425 101.7283  75.7078   C.ar      1 RES1   4.0640
     4 C       95.2425 101.1233  76.3096   C.ar      1 RES1  15.6940
     5 C       95.1181 100.5570  77.5683   C.ar      1 RES1  20.8150
     6 N       93.9505 100.5851  78.2327   N.ar      1 RES1  14.0790
     7 N       96.3236 100.0522  77.8815   N.ar      1 RES1  21.9870
     8 C       97.1856 100.2985  76.8738   C.ar      1 RES1  22.2650
     9 N       96.5141 100.9525  75.9031   N.ar      1 RES1  16.9620
    10 C       96.6261  99.4427  79.0614   C.3       1 RES1  21.9870
    11 C       96.9305  97.9406  78.8787   C.3       1 RES1  20.8900
    12 C       98.0985  97.6766  79.8565   C.3       1 RES1  20.9800
    13 C       98.2574  99.0182  80.6032   C.3       1 RES1  22.2910
    14 O       97.8363  99.9641  79.6183   O.3       1 RES1  22.7610
    15 C       99.7071  99.2894  81.0506   C.3       1 RES1  21.5210
    16 O      100.5856  98.3930  80.3643   O.3       1 RES1  16.9130
    17 P      102.1744  98.4574  80.5396   P.3       1 RES1  25.8020
    18 O      102.4999  98.8333  81.9441   O.2       1 RES1  28.9270
    19 O      102.7826  97.0095  80.2327   O.3       1 RES1  24.4260
    20 O      102.7748  99.5685  79.5529   O.3       1 RES1  23.7780
    21 P      102.9551 100.9940  80.2613   P.3       1 RES1  32.3700
    22 O      101.8814 101.2142  81.2707   O.2       1 RES1  32.3700
    23 O      102.9032 102.1541  79.1595   O.3       1 RES1  33.4300
    24 O      104.3830 101.0643  80.9821   O.3       1 RES1  40.3360
    25 P      105.5221 101.5661  79.9752   P.3       1 RES1  29.2050
    26 O      105.4997 100.7152  78.7523   O.2       1 RES1  26.6380
    27 O      105.2569 103.0889  79.5607   O.3       1 RES1  26.3160
    28 O      106.9550 101.4345  80.6745   O.3       1 RES1   4.1670
    29 O       97.8413  96.5837  80.7472   O.3       1 RES1  20.8190
    30 O       95.7744  97.1538  79.1884   O.3       1 RES1   7.4220
    31 N       94.2325 102.2830  74.4800   N.pl3     1 RES1   0.0000
    32 H1      91.9479 101.2192  78.1603   H         1 RES1   0.0000
    33 H2      98.2337 100.0227  76.8456   H         1 RES1   0.0000
    34 H3      95.8151  99.5684  79.7955   H         1 RES1   0.0000
    35 H4      97.2614  97.7457  77.8463   H         1 RES1   0.0000
    36 H5      99.0072  97.4693  79.2712   H         1 RES1   0.0000
    37 H6      97.5729  99.0619  81.4643   H         1 RES1   0.0000
    38 H7      99.8001  99.1511  82.1380   H         1 RES1   0.0000
    39 H8      99.9718 100.3242  80.7916   H         1 RES1   0.0000
    40 H9     102.1437  96.4872  79.7618   H         1 RES1   0.0000
    41 H10    103.0787 101.7986  78.2971   H         1 RES1   0.0000
    42 H11    105.0826 103.1390  78.6282   H         1 RES1   0.0000
    43 H12    107.4144 102.2638  80.6151   H         1 RES1   0.0000
    44 H13     97.2735  95.9393  80.3400   H         1 RES1   0.0000
    45 H14     96.0304  96.2698  79.4265   H         1 RES1   0.0000
    46 H15     93.4078 102.7267  74.0504   H         1 RES1   0.0000
    47 H16     95.1281 102.2629  73.9717   H         1 RES1   0.0000
    48 ****    92.1768 102.1604  76.0010   Du        1 RES1   0.0000
    49 ****    93.8649 100.1764  79.1414   Du        1 RES1  14.0790
    50 ****    96.8960 101.2581  75.0309   Du        1 RES1  11.9820
    51 ****    98.5331 100.0588  78.9074   Du        1 RES1  22.8670
    52 ****    97.6685 100.8545  80.0414   Du        1 RES1  22.0810
    53 ****   102.0868  98.3320  82.7044   Du        1 RES1  25.8020
    54 ****   103.1314  99.5868  82.1265   Du        1 RES1  30.2670
    55 ****   103.0128  96.5562  81.0939   Du        1 RES1  21.5880
    56 ****   103.6078  97.1067  79.6762   Du        1 RES1  21.5880
    57 ****   101.8455 102.0719  81.7835   Du        1 RES1  32.3700
    58 ****   101.1967 100.5042  81.4352   Du        1 RES1  28.5050
    59 ****   103.5912 102.8464  79.3770   Du        1 RES1  32.3700
    60 ****   101.9953 102.5733  79.1648   Du        1 RES1  31.5030
    61 ****   105.0942 101.0645  77.9076   Du        1 RES1  29.8030
    62 ****   105.8901  99.7949  78.7763   Du        1 RES1  26.6280
    63 ****   106.0633 103.6386  79.7787   Du        1 RES1  24.6470
    64 ****   104.4682 103.4391  80.0660   Du        1 RES1  32.3700
    65 ****   107.4872 100.7249  80.2127   Du        1 RES1  26.6280
    66 ****   106.8350 101.1882  81.6363   Du        1 RES1  27.4490
    67 ****    97.4001  96.9324  81.5741   Du        1 RES1  22.2270
    68 ****    98.7083  96.1487  80.9902   Du        1 RES1  20.9800
    69 ****    95.1749  97.1195  78.3887   Du        1 RES1  18.7840
    70 ****    95.2857  97.5729  79.9536   Du        1 RES1  20.8900
@<TRIPOS>BOND
     1     1     2   ar
     2     2     3   ar
     3     3     4   ar
     4     4     5   ar
     5     5     6   ar
     6     1     6   ar
     7     5     7   ar
     8     7     8   ar
     9     8     9   ar
    10     4     9   ar
    11     7    10    1
    12    10    11    1
    13    11    12    1
    14    12    13    1
    15    13    14    1
    16    10    14    1
    17    13    15    1
    18    15    16    1
    19    16    17    1
    20    17    18    2
    21    17    19    1
    22    17    20    1
    23    20    21    1
    24    21    22    2
    25    21    23    1
    26    21    24    1
    27    24    25    1
    28    25    26    2
    29    25    27    1
    30    25    28    1
    31    12    29    1
    32    11    30    1
    33     3    31    1
    34     1    32    1
    35     8    33    1
    36    10    34    1
    37    11    35    1
    38    12    36    1
    39    13    37    1
    40    15    38    1
    41    15    39    1
    42    19    40    1
    43    23    41    1
    44    27    42    1
    45    28    43    1
    46    29    44    1
    47    30    45    1
    48    31    46    1
    49    31    47    1
    50     2    48    1
    51     6    49    1
    52     9    50    1
    53    14    51    1
    54    14    52    1
    55    18    53    1
    56    18    54    1
    57    19    55    1
    58    19    56    1
    59    22    57    1
    60    22    58    1
    61    23    59    1
    62    23    60    1
    63    26    61    1
    64    26    62    1
    65    27    63    1
    66    27    64    1
    67    28    65    1
    68    28    66    1
    69    29    67    1
    70    29    68    1
    71    30    69    1
    72    30    70    1
@<TRIPOS>SUBSTRUCTURE
     1 RES1        1 GROUP             0 ****  ****    0  
@<TRIPOS>MOLECULE
13.2805105346
    70    72     1     0     0
SMALL
USER_CHARGES
****
Generated from the CSD

@<TRIPOS>ATOM
     1 C       92.6939  99.2698  81.5919   C.ar      1 RES1   7.4040
     2 N       92.2048 100.0153  80.5741   N.ar      1 RES1   1.9890
     3 C       92.9982 100.4625  79.5779   C.ar      1 RES1   3.2480
     4 C       94.3466 100.1218  79.6395   C.ar      1 RES1  18.9800
     5 C       94.8179  99.3498  80.6894   C.ar      1 RES1  20.8150
     6 N       93.9972  98.9241  81.6645   N.ar      1 RES1  15.8540
     7 N       96.1345  99.1810  80.4792   N.ar      1 RES1  22.2910
     8 C       96.4929  99.8297  79.3523   C.ar      1 RES1  21.9870
     9 N       95.3869 100.4026  78.8331   N.ar      1 RES1  21.1340
    10 C       96.9729  98.5072  81.3149   C.3       1 RES1  22.2910
    11 C       96.5298  97.0440  81.5275   C.3       1 RES1  22.2270
    12 C       97.8582  96.2536  81.5534   C.3       1 RES1  20.9800
    13 C       98.9376  97.3552  81.4920   C.3       1 RES1  22.2270
    14 O       98.2798  98.3819  80.7468   O.3       1 RES1  22.2910
    15 C      100.2274  96.8947  80.7852   C.3       1 RES1  20.9800
    16 O      101.0880  98.0218  80.5976   O.3       1 RES1  17.8470
    17 P      102.6766  97.9153  80.7534   P.3       1 RES1  25.4590
    18 O      103.0265  97.8587  82.2006   O.2       1 RES1  25.4590
    19 O      103.1717  96.5692  80.0439   O.3       1 RES1  23.6200
    20 O      103.3637  99.2092  80.1038   O.3       1 RES1  18.7540
    21 P      103.2250 100.5128  81.0248   P.3       1 RES1  32.3700
    22 O      104.5476 100.8882  81.5994   O.2       1 RES1  32.3700
    23 O      102.1858 100.2285  82.2086   O.3       1 RES1  13.6220
    24 O      102.6588 101.7325  80.1560   O.3       1 RES1  15.9680
    25 P      103.4878 101.9180  78.7989   P.3       1 RES1  31.5030
    26 O      103.3286 100.6966  77.9607   O.2       1 RES1  30.6300
    27 O      102.9404 103.1856  77.9897   O.3       1 RES1  33.4300
    28 O      105.0385 102.1178  79.1383   O.3       1 RES1  30.7720
    29 O       97.9894  95.4255  82.7157   O.3       1 RES1  17.8590
    30 O       95.7971  96.9153  82.7514   O.3       1 RES1   9.8230
    31 N       92.5096 101.2085  78.5640   N.pl3     1 RES1   0.0000
    32 H1      92.0186  98.9401  82.3731   H         1 RES1   0.0000
    33 H2      97.4920  99.8847  78.9350   H         1 RES1   0.0000
    34 H3      97.0570  99.0127  82.2894   H         1 RES1   0.0000
    35 H4      95.9164  96.7083  80.6764   H         1 RES1   0.0000
    36 H5      97.9142  95.6302  80.6482   H         1 RES1   0.0000
    37 H6      99.1634  97.7287  82.5028   H         1 RES1   0.0000
    38 H7      99.9849  96.4385  79.8139   H         1 RES1   0.0000
    39 H8     100.7351  96.1535  81.4185   H         1 RES1   0.0000
    40 H9     102.4377  96.1446  79.6154   H         1 RES1   0.0000
    41 H10    102.4597  99.4735  82.7145   H         1 RES1   0.0000
    42 H11    103.5152 103.3666  77.2554   H         1 RES1   0.0000
    43 H12    105.2935 101.5128  79.8249   H         1 RES1   0.0000
    44 H13     98.8331  95.5562  83.1331   H         1 RES1   0.0000
    45 H14     95.1995  97.6470  82.8573   H         1 RES1   0.0000
    46 H15     91.5086 101.4512  78.5352   H         1 RES1   0.0000
    47 H16     93.1392 101.5362  77.8176   H         1 RES1   0.0000
    48 ****    91.2307 100.2407  80.5596   Du        1 RES1   0.0000
    49 ****    94.3413  98.3681  82.4212   Du        1 RES1  18.0210
    50 ****    95.3471 100.9433  77.9929   Du        1 RES1  21.1340
    51 ****    98.2161  98.1246  79.7825   Du        1 RES1  20.9800
    52 ****    98.7786  99.2447  80.8292   Du        1 RES1  22.2270
    53 ****   103.1456  98.7051  82.7196   Du        1 RES1  27.1270
    54 ****   103.1424  96.9744  82.6528   Du        1 RES1  20.5660
    55 ****   103.5569  95.9534  80.7313   Du        1 RES1  21.5880
    56 ****   103.8714  96.7895  79.3643   Du        1 RES1  21.5880
    57 ****   105.1997 101.4129  81.0523   Du        1 RES1  32.3700
    58 ****   104.7831 100.6153  82.5322   Du        1 RES1  32.3700
    59 ****   101.2817 100.0536  81.8187   Du        1 RES1  31.8690
    60 ****   102.1414 101.0281  82.8075   Du        1 RES1  30.3250
    61 ****   103.4997  99.7937  78.3552   Du        1 RES1  28.8240
    62 ****   103.0507 100.7796  77.0037   Du        1 RES1  25.4070
    63 ****   102.9134 103.9809  78.5953   Du        1 RES1  29.7110
    64 ****   102.0193 102.9924  77.6518   Du        1 RES1  28.3910
    65 ****   105.1939 103.0563  79.4466   Du        1 RES1  32.3700
    66 ****   105.5842 101.9414  78.3191   Du        1 RES1  26.6380
    67 ****    97.9031  94.4665  82.4456   Du        1 RES1  21.8640
    68 ****    97.2642  95.6554  83.3648   Du        1 RES1  20.4810
    69 ****    96.4377  96.8989  83.5191   Du        1 RES1  22.2270
    70 ****    95.2748  96.0627  82.7350   Du        1 RES1  19.8270
@<TRIPOS>BOND
     1     1     2   ar
     2     2     3   ar
     3     3     4   ar
     4     4     5   ar
     5     5     6   ar
     6     1     6   ar
     7     5     7   ar
     8     7     8   ar
     9     8     9   ar
    10     4     9   ar
    11     7    10    1
    12    10    11    1
    13    11    12    1
    14    12    13    1
    15    13    14    1
    16    10    14    1
    17    13    15    1
    18    15    16    1
    19    16    17    1
    20    17    18    2
    21    17    19    1
    22    17    20    1
    23    20    21    1
    24    21    22    2
    25    21    23    1
    26    21    24    1
    27    24    25    1
    28    25    26    2
    29    25    27    1
    30    25    28    1
    31    12    29    1
    32    11    30    1
    33     3    31    1
    34     1    32    1
    35     8    33    1
    36    10    34    1
    37    11    35    1
    38    12    36    1
    39    13    37    1
    40    15    38    1
    41    15    39    1
    42    19    40    1
    43    23    41    1
    44    27    42    1
    45    28    43    1
    46    29    44    1
    47    30    45    1
    48    31    46    1
    49    31    47    1
    50     2    48    1
    51     6    49    1
    52     9    50    1
    53    14    51    1
    54    14    52    1
    55    18    53    1
    56    18    54    1
    57    19    55    1
    58    19    56    1
    59    22    57    1
    60    22    58    1
    61    23    59    1
    62    23    60    1
    63    26    61    1
    64    26    62    1
    65    27    63    1
    66    27    64    1
    67    28    65    1
    68    28    66    1
    69    29    67    1
    70    29    68    1
    71    30    69    1
    72    30    70    1
@<TRIPOS>SUBSTRUCTURE
     1 RES1        1 GROUP             0 ****  ****    0  
@<TRIPOS>MOLECULE
13.1569147414
    70    72     1     0     0
SMALL
USER_CHARGES
****
Generated from the CSD

@<TRIPOS>ATOM
     1 C      103.2802 101.1807  81.9088   C.ar      1 RES1  32.3700
     2 N      104.1012 102.1186  81.3824   N.ar      1 RES1  32.3700
     3 C      104.2663 102.2487  80.0492   C.ar      1 RES1  32.3700
     4 C      103.5520 101.3755  79.2335   C.ar      1 RES1  31.5030
     5 C      102.7118 100.4303  79.8002   C.ar      1 RES1  32.3700
     6 N      102.5746 100.3299  81.1331   N.ar      1 RES1  32.3700
     7 N      102.1621  99.7472  78.7816   N.ar      1 RES1  26.3750
     8 C      102.6416 100.2243  77.6147   C.ar      1 RES1  25.8320
     9 N      103.4926 101.2329  77.8965   N.ar      1 RES1  30.6300
    10 C      101.3026  98.7004  78.9246   C.3       1 RES1  23.6460
    11 C      101.4871  97.9768  80.2755   C.3       1 RES1  25.4590
    12 C      100.0452  97.6267  80.7094   C.3       1 RES1  20.9800
    13 C       99.1871  98.0599  79.5017   C.3       1 RES1  20.0310
    14 O       99.9444  99.1476  78.9673   O.3       1 RES1  23.6460
    15 C       97.7698  98.5132  79.9027   C.3       1 RES1  21.1340
    16 O       96.8077  97.6939  79.2325   O.3       1 RES1  14.0510
    17 P       96.1933  98.0923  77.8102   P.3       1 RES1  20.0310
    18 O       96.8900  99.3044  77.2951   O.2       1 RES1  22.2650
    19 O       96.4318  96.8812  76.7918   O.3       1 RES1   9.8130
    20 O       94.6338  98.4218  77.9767   O.3       1 RES1   0.7700
    21 P       94.1471  98.3616  79.5019   P.3       1 RES1  14.5380
    22 O       94.9133  99.3328  80.3324   O.2       1 RES1  20.8150
    23 O       94.3550  96.8819  80.0762   O.3       1 RES1   3.5850
    24 O       92.5861  98.7069  79.5868   O.3       1 RES1   3.8620
    25 P       92.3166  99.9644  80.5404   P.3       1 RES1   3.8670
    26 O       92.8639  99.6736  81.8953   O.2       1 RES1  10.3460
    27 O       93.0377 101.2656  79.9506   O.3       1 RES1   0.0000
    28 O       90.7421 100.2222  80.6595   O.3       1 RES1   0.0000
    29 O       99.8815  96.2384  81.0250   O.3       1 RES1  16.7900
    30 O      102.3033  96.8112  80.1121   O.3       1 RES1  26.2200
    31 N      105.0877 103.1835  79.5250   N.pl3     1 RES1  40.3360
    32 H1     103.1862 101.1101  82.9864   H         1 RES1   0.0000
    33 H2     102.3911  99.8630  76.6237   H         1 RES1   0.0000
    34 H3     101.4123  97.9780  78.1009   H         1 RES1   0.0000
    35 H4     101.9388  98.6610  81.0112   H         1 RES1   0.0000
    36 H5      99.7838  98.2376  81.5868   H         1 RES1   0.0000
    37 H6      99.1375  97.2515  78.7560   H         1 RES1   0.0000
    38 H7      97.6195  99.5694  79.6337   H         1 RES1   0.0000
    39 H8      97.6520  98.3943  80.9889   H         1 RES1   0.0000
    40 H9      95.9406  96.1203  77.0788   H         1 RES1   0.0000
    41 H10     94.8936  96.3707  79.4848   H         1 RES1   0.0000
    42 H11     92.6454 101.4964  79.1169   H         1 RES1   0.0000
    43 H12     90.5885 101.0494  81.1005   H         1 RES1   0.0000
    44 H13    100.2919  95.6892  80.3668   H         1 RES1   0.0000
    45 H14    101.8326  96.1438  79.6255   H         1 RES1   0.0000
    46 H15    105.6087 103.8211  80.1444   H         1 RES1   0.0000
    47 H16    105.1942 103.2590  78.5033   H         1 RES1   0.0000
    48 ****   104.5983 102.7311  81.9970   Du        1 RES1  32.3700
    49 ****   101.9682  99.6457  81.5384   Du        1 RES1  29.2970
    50 ****   103.9935 101.7808  77.2265   Du        1 RES1  25.4070
    51 ****    99.8617  99.9511  79.5568   Du        1 RES1  23.6460
    52 ****    99.6245  99.3747  78.0475   Du        1 RES1  22.8670
    53 ****    96.7712 100.1835  77.7569   Du        1 RES1  22.2650
    54 ****    97.4763  99.2390  76.4877   Du        1 RES1  22.7610
    55 ****    97.4060  96.6570  76.7642   Du        1 RES1  13.4090
    56 ****    96.1256  97.1496  75.8785   Du        1 RES1   8.1590
    57 ****    94.6278 100.2903  80.3732   Du        1 RES1  18.9800
    58 ****    95.7132  99.0272  80.8490   Du        1 RES1  22.2910
    59 ****    93.4641  96.4391  80.1766   Du        1 RES1  18.5870
    60 ****    94.8036  96.9345  80.9684   Du        1 RES1  20.5070
    61 ****    93.2155 100.4181  82.4628   Du        1 RES1   2.7260
    62 ****    92.8795  98.7340  82.2371   Du        1 RES1  14.3530
    63 ****    94.0109 101.0765  79.8196   Du        1 RES1  14.0790
    64 ****    92.9292 102.0257  80.5913   Du        1 RES1   2.5540
    65 ****    90.3220  99.4818  81.1843   Du        1 RES1   0.2010
    66 ****    90.3393 100.2525  79.7447   Du        1 RES1   0.0000
    67 ****    98.9054  96.0252  81.0665   Du        1 RES1  20.9800
    68 ****   100.3012  96.0532  81.9135   Du        1 RES1  20.9800
    69 ****   102.5486  96.4516  81.0124   Du        1 RES1  21.5880
    70 ****   103.1346  97.0579  79.6139   Du        1 RES1  21.5880
@<TRIPOS>BOND
     1     1     2   ar
     2     2     3   ar
     3     3     4   ar
     4     4     5   ar
     5     5     6   ar
     6     1     6   ar
     7     5     7   ar
     8     7     8   ar
     9     8     9   ar
    10     4     9   ar
    11     7    10    1
    12    10    11    1
    13    11    12    1
    14    12    13    1
    15    13    14    1
    16    10    14    1
    17    13    15    1
    18    15    16    1
    19    16    17    1
    20    17    18    2
    21    17    19    1
    22    17    20    1
    23    20    21    1
    24    21    22    2
    25    21    23    1
    26    21    24    1
    27    24    25    1
    28    25    26    2
    29    25    27    1
    30    25    28    1
    31    12    29    1
    32    11    30    1
    33     3    31    1
    34     1    32    1
    35     8    33    1
    36    10    34    1
    37    11    35    1
    38    12    36    1
    39    13    37    1
    40    15    38    1
    41    15    39    1
    42    19    40    1
    43    23    41    1
    44    27    42    1
    45    28    43    1
    46    29    44    1
    47    30    45    1
    48    31    46    1
    49    31    47    1
    50     2    48    1
    51     6    49    1
    52     9    50    1
    53    14    51    1
    54    14    52    1
    55    18    53    1
    56    18    54    1
    57    19    55    1
    58    19    56    1
    59    22    57    1
    60    22    58    1
    61    23    59    1
    62    23    60    1
    63    26    61    1
    64    26    62    1
    65    27    63    1
    66    27    64    1
    67    28    65    1
    68    28    66    1
    69    29    67    1
    70    29    68    1
    71    30    69    1
    72    30    70    1
@<TRIPOS>SUBSTRUCTURE
     1 RES1        1 GROUP             0 ****  ****    0  
@<TRIPOS>MOLECULE
13.0327872368
    70    72     1     0     0
SMALL
USER_CHARGES
****
Generated from the CSD

@<TRIPOS>ATOM
     1 C       94.3634 100.7431  75.9314   C.ar      1 RES1  10.1350
     2 N       94.4146 101.5885  74.8762   N.ar      1 RES1   3.4430
     3 C       95.4611 102.4187  74.6830   C.ar      1 RES1   3.7820
     4 C       96.4920 102.3677  75.6172   C.ar      1 RES1  13.4720
     5 C       96.4165 101.4856  76.6834   C.ar      1 RES1  20.4940
     6 N       95.3568 100.6751  76.8435   N.ar      1 RES1  18.7660
     7 N       97.5402 101.6556  77.4008   N.ar      1 RES1  22.7610
     8 C       98.2944 102.6155  76.8273   C.ar      1 RES1  22.8670
     9 N       97.6488 103.0473  75.7238   N.ar      1 RES1  13.8880
    10 C       97.8291 100.9959  78.5568   C.3       1 RES1  22.7610
    11 C       97.6716  99.4675  78.4090   C.3       1 RES1  22.7610
    12 C       98.8490  98.8918  79.2290   C.3       1 RES1  22.7610
    13 C       99.4837 100.1397  79.8790   C.3       1 RES1  22.0810
    14 O       99.2045 101.1574  78.9155   O.3       1 RES1  22.8670
    15 C      101.0004  99.9925  80.1088   C.3       1 RES1  27.9720
    16 O      101.3694  98.6205  79.9429   O.3       1 RES1  18.0300
    17 P      102.4178  97.8978  80.9113   P.3       1 RES1  25.4590
    18 O      102.3921  98.5593  82.2461   O.2       1 RES1  26.3340
    19 O      101.9875  96.3658  81.0799   O.3       1 RES1  23.6200
    20 O      103.8913  98.0301  80.2950   O.3       1 RES1  18.7540
    21 P      104.8559  98.9473  81.1867   P.3       1 RES1  30.7470
    22 O      106.2622  98.8478  80.7044   O.2       1 RES1  30.7470
    23 O      104.7782  98.4832  82.7167   O.3       1 RES1   0.0000
    24 O      104.3758 100.4727  81.1107   O.3       1 RES1  37.8750
    25 P      105.3722 101.3555  80.2213   P.3       1 RES1  29.2050
    26 O      105.4747 100.7531  78.8625   O.2       1 RES1  26.6380
    27 O      104.8155 102.8504  80.0926   O.3       1 RES1  30.7720
    28 O      106.8236 101.3717  80.8942   O.3       1 RES1   3.4600
    29 O       98.4295  97.9246  80.1999   O.3       1 RES1  26.0470
    30 O       96.3999  99.0438  78.9135   O.3       1 RES1  14.0420
    31 N       95.5101 103.2638  73.6310   N.pl3     1 RES1   0.0000
    32 H1      93.4981 100.1007  76.0481   H         1 RES1   0.0000
    33 H2      99.2502 102.9795  77.1870   H         1 RES1   0.0000
    34 H3      97.2017 101.3529  79.3882   H         1 RES1   0.0000
    35 H4      97.7806  99.1776  77.3520   H         1 RES1   0.0000
    36 H5      99.5681  98.4300  78.5354   H         1 RES1   0.0000
    37 H6      98.9719 100.3835  80.8228   H         1 RES1   0.0000
    38 H7     101.2654 100.3355  81.1200   H         1 RES1   0.0000
    39 H8     101.5338 100.6027  79.3664   H         1 RES1   0.0000
    40 H9     101.6940  96.0219  80.2443   H         1 RES1   0.0000
    41 H10    104.3794  97.6243  82.7816   H         1 RES1   0.0000
    42 H11    104.6895 103.0651  79.1759   H         1 RES1   0.0000
    43 H12    107.2387 102.2108  80.7329   H         1 RES1   0.0000
    44 H13     98.0998  97.1396  79.7776   H         1 RES1   0.0000
    45 H14     96.2161  99.4677  79.7443   H         1 RES1   0.0000
    46 H15     94.7375 103.2879  72.9497   H         1 RES1   0.0000
    47 H16     96.3217 103.8863  73.5095   H         1 RES1   0.0000
    48 ****    93.6576 101.5985  74.2228   Du        1 RES1   0.0000
    49 ****    95.3054 100.0408  77.6148   Du        1 RES1  21.1340
    50 ****    97.9742 103.7517  75.0931   Du        1 RES1  14.2230
    51 ****    99.7886 101.0443  78.1117   Du        1 RES1  23.8320
    52 ****    99.3558 102.0626  79.3127   Du        1 RES1  22.8670
    53 ****   102.7051  98.0633  83.0560   Du        1 RES1  24.2490
    54 ****   102.0619  99.4993  82.3319   Du        1 RES1  29.2970
    55 ****   101.2442  96.3006  81.7457   Du        1 RES1  20.7330
    56 ****   102.7708  95.8339  81.4017   Du        1 RES1  21.5880
    57 ****   106.7619  97.9863  80.7944   Du        1 RES1  18.3600
    58 ****   106.7062  99.6426  80.2907   Du        1 RES1  30.7470
    59 ****   104.2301  99.1411  83.2333   Du        1 RES1  30.7470
    60 ****   105.7022  98.4473  83.0976   Du        1 RES1  27.8300
    61 ****   105.3103  99.7749  78.7355   Du        1 RES1  24.8650
    62 ****   105.7080 101.3269  78.0774   Du        1 RES1  26.6380
    63 ****   105.4732 103.4865  80.4962   Du        1 RES1  27.4220
    64 ****   103.9424 102.9233  80.5747   Du        1 RES1  32.3700
    65 ****   107.3821 100.6422  80.4993   Du        1 RES1  26.6280
    66 ****   106.7355 101.2276  81.8798   Du        1 RES1  30.7470
    67 ****    97.7057  98.3209  80.7648   Du        1 RES1  22.2910
    68 ****    99.2086  97.6824  80.7781   Du        1 RES1  22.2270
    69 ****    96.4107  98.0525  79.0444   Du        1 RES1  20.8900
    70 ****    95.6869  99.2853  78.2553   Du        1 RES1  21.1340
@<TRIPOS>BOND
     1     1     2   ar
     2     2     3   ar
     3     3     4   ar
     4     4     5   ar
     5     5     6   ar
     6     1     6   ar
     7     5     7   ar
     8     7     8   ar
     9     8     9   ar
    10     4     9   ar
    11     7    10    1
    12    10    11    1
    13    11    12    1
    14    12    13    1
    15    13    14    1
    16    10    14    1
    17    13    15    1
    18    15    16    1
    19    16    17    1
    20    17    18    2
    21    17    19    1
    22    17    20    1
    23    20    21    1
    24    21    22    2
    25    21    23    1
    26    21    24    1
    27    24    25    1
    28    25    26    2
    29    25    27    1
    30    25    28    1
    31    12    29    1
    32    11    30    1
    33     3    31    1
    34     1    32    1
    35     8    33    1
    36    10    34    1
    37    11    35    1
    38    12    36    1
    39    13    37    1
    40    15    38    1
    41    15    39    1
    42    19    40    1
    43    23    41    1
    44    27    42    1
    45    28    43    1
    46    29    44    1
    47    30    45    1
    48    31    46    1
    49    31    47    1
    50     2    48    1
    51     6    49    1
    52     9    50    1
    53    14    51    1
    54    14    52    1
    55    18    53    1
    56    18    54    1
    57    19    55    1
    58    19    56    1
    59    22    57    1
    60    22    58    1
    61    23    59    1
    62    23    60    1
    63    26    61    1
    64    26    62    1
    65    27    63    1
    66    27    64    1
    67    28    65    1
    68    28    66    1
    69    29    67    1
    70    29    68    1
    71    30    69    1
    72    30    70    1
@<TRIPOS>SUBSTRUCTURE
     1 RES1        1 GROUP             0 ****  ****    0  
@<TRIPOS>MOLECULE
11.3086808945
    70    72     1     0     0
SMALL
USER_CHARGES
****
Generated from the CSD

@<TRIPOS>ATOM
     1 C       93.2807 100.4199  75.0211   C.ar      1 RES1   0.3980
     2 N       92.4557 101.4503  75.3186   N.ar      1 RES1   0.0000
     3 C       92.2231 101.8269  76.5936   C.ar      1 RES1   0.0000
     4 C       92.8717 101.1098  77.5952   C.ar      1 RES1   3.2480
     5 C       93.7177 100.0645  77.2605   C.ar      1 RES1   7.8700
     6 N       93.9233  99.7174  75.9787   N.ar      1 RES1   6.9560
     7 N       94.1958  99.5739  78.4168   N.ar      1 RES1  14.0790
     8 C       93.6665 100.2652  79.4470   C.ar      1 RES1   7.8700
     9 N       92.8564 101.2160  78.9367   N.ar      1 RES1   3.2480
    10 C       95.0362  98.5069  78.5177   C.3       1 RES1  20.8150
    11 C       96.0063  98.4155  77.3207   C.3       1 RES1  21.1340
    12 C       97.3406  97.9635  77.9575   C.3       1 RES1  20.0310
    13 C       96.9699  97.7068  79.4338   C.3       1 RES1  20.8900
    14 O       95.9071  98.6384  79.6450   O.3       1 RES1  21.1340
    15 C       98.1399  97.9692  80.4020   C.3       1 RES1  22.2910
    16 O       99.3740  97.8654  79.6860   O.3       1 RES1  14.5610
    17 P      100.7602  98.3754  80.3005   P.3       1 RES1  24.3780
    18 O      100.4904  99.1686  81.5325   O.2       1 RES1  22.6210
    19 O      101.6496  97.1018  80.6843   O.3       1 RES1  26.2200
    20 O      101.5037  99.3116  79.2332   O.3       1 RES1  23.7780
    21 P      102.8959  99.8877  79.7779   P.3       1 RES1  31.9470
    22 O      103.7885 100.2540  78.6425   O.2       1 RES1  31.1390
    23 O      103.6137  98.7874  80.6926   O.3       1 RES1  20.5580
    24 O      102.6303 101.1816  80.6825   O.3       1 RES1  16.9130
    25 P      103.4206 102.4573  80.1246   P.3       1 RES1  32.3700
    26 O      104.8776 102.1480  80.0854   O.2       1 RES1  32.3700
    27 O      102.9187 102.8113  78.6467   O.3       1 RES1  33.4300
    28 O      103.1797 103.7066  81.0945   O.3       1 RES1  25.7040
    29 O       97.8935  96.8028  77.3241   O.3       1 RES1  20.8740
    30 O       95.5211  97.4776  76.3530   O.3       1 RES1   4.6810
    31 N       91.3977 102.8538  76.8896   N.pl3     1 RES1   0.0000
    32 H1      93.4301 100.1499  73.9819   H         1 RES1   0.0000
    33 H2      93.8552 100.0899  80.5001   H         1 RES1   0.0000
    34 H3      94.4753  97.5640  78.6111   H         1 RES1   0.0000
    35 H4      96.1335  99.4087  76.8617   H         1 RES1   0.0000
    36 H5      98.0592  98.7948  77.8959   H         1 RES1   0.0000
    37 H6      96.5856  96.6830  79.5609   H         1 RES1   0.0000
    38 H7      98.1193  97.2417  81.2270   H         1 RES1   0.0000
    39 H8      98.0431  98.9850  80.8103   H         1 RES1   0.0000
    40 H9     101.3296  96.3365  80.2211   H         1 RES1   0.0000
    41 H10    104.0262  98.1258  80.1512   H         1 RES1   0.0000
    42 H11    103.6626 102.8411  78.0568   H         1 RES1   0.0000
    43 H12    103.9092 104.3106  81.0210   H         1 RES1   0.0000
    44 H13     98.7586  96.6083  77.6661   H         1 RES1   0.0000
    45 H14     95.0218  96.7906  76.7802   H         1 RES1   0.0000
    46 H15     90.9260 103.3731  76.1349   H         1 RES1   0.0000
    47 H16     91.2389 103.1184  77.8722   H         1 RES1   0.0000
    48 ****    92.0069 101.9455  74.5747   Du        1 RES1   0.0000
    49 ****    94.5337  98.9618  75.7412   Du        1 RES1   6.6140
    50 ****    92.3339 101.8853  79.4651   Du        1 RES1   0.0000
    51 ****    96.2672  99.5697  79.6989   Du        1 RES1  21.9870
    52 ****    95.4174  98.4209  80.4894   Du        1 RES1  22.2910
    53 ****    99.6980  99.7774  81.5717   Du        1 RES1  21.5210
    54 ****   101.1017  99.0923  82.3202   Du        1 RES1  24.3780
    55 ****   101.5931  96.9416  81.6698   Du        1 RES1  21.5880
    56 ****   102.6013  97.2715  80.4283   Du        1 RES1  22.3720
    57 ****   103.8219  99.6770  77.8264   Du        1 RES1  22.9290
    58 ****   104.3542 101.0769  78.6965   Du        1 RES1  31.1390
    59 ****   102.9324  98.3533  81.2820   Du        1 RES1  27.1270
    60 ****   104.3090  99.2314  81.2579   Du        1 RES1  30.7470
    61 ****   105.3582 102.1144  79.2091   Du        1 RES1  26.6380
    62 ****   105.3748 101.9741  80.9354   Du        1 RES1  30.7470
    63 ****   102.4636 103.7017  78.6540   Du        1 RES1  31.1390
    64 ****   102.2758 102.1109  78.3367   Du        1 RES1  31.1390
    65 ****   103.1066 103.3859  82.0389   Du        1 RES1  32.3700
    66 ****   102.3340 104.1723  80.8342   Du        1 RES1  30.9350
    67 ****    97.9602  96.9677  76.3401   Du        1 RES1  10.4470
    68 ****    97.2924  96.0213  77.4912   Du        1 RES1  16.6090
    69 ****    96.2967  97.0704  75.8707   Du        1 RES1   8.1590
    70 ****    94.9339  97.9534  75.6982   Du        1 RES1   7.4990
@<TRIPOS>BOND
     1     1     2   ar
     2     2     3   ar
     3     3     4   ar
     4     4     5   ar
     5     5     6   ar
     6     1     6   ar
     7     5     7   ar
     8     7     8   ar
     9     8     9   ar
    10     4     9   ar
    11     7    10    1
    12    10    11    1
    13    11    12    1
    14    12    13    1
    15    13    14    1
    16    10    14    1
    17    13    15    1
    18    15    16    1
    19    16    17    1
    20    17    18    2
    21    17    19    1
    22    17    20    1
    23    20    21    1
    24    21    22    2
    25    21    23    1
    26    21    24    1
    27    24    25    1
    28    25    26    2
    29    25    27    1
    30    25    28    1
    31    12    29    1
    32    11    30    1
    33     3    31    1
    34     1    32    1
    35     8    33    1
    36    10    34    1
    37    11    35    1
    38    12    36    1
    39    13    37    1
    40    15    38    1
    41    15    39    1
    42    19    40    1
    43    23    41    1
    44    27    42    1
    45    28    43    1
    46    29    44    1
    47    30    45    1
    48    31    46    1
    49    31    47    1
    50     2    48    1
    51     6    49    1
    52     9    50    1
    53    14    51    1
    54    14    52    1
    55    18    53    1
    56    18    54    1
    57    19    55    1
    58    19    56    1
    59    22    57    1
    60    22    58    1
    61    23    59    1
    62    23    60    1
    63    26    61    1
    64    26    62    1
    65    27    63    1
    66    27    64    1
    67    28    65    1
    68    28    66    1
    69    29    67    1
    70    29    68    1
    71    30    69    1
    72    30    70    1
@<TRIPOS>SUBSTRUCTURE
     1 RES1        1 GROUP             0 ****  ****    0  
@<TRIPOS>MOLECULE
11.1738510309
    70    72     1     0     0
SMALL
USER_CHARGES
****
Generated from the CSD

@<TRIPOS>ATOM
     1 C      102.0192 100.1031  76.9073   C.ar      1 RES1  23.6460
     2 N      102.8803 101.0618  77.3197   N.ar      1 RES1  28.3910
     3 C      102.7521 101.6600  78.5228   C.ar      1 RES1  31.1390
     4 C      101.6937 101.2466  79.3271   C.ar      1 RES1  31.8690
     5 C      100.8324 100.2563  78.8822   C.ar      1 RES1  28.5050
     6 N      100.9912  99.6848  77.6765   N.ar      1 RES1  23.6460
     7 N       99.9293 100.0673  79.8594   N.ar      1 RES1  23.6460
     8 C      100.1922 100.9108  80.8786   C.ar      1 RES1  22.7010
     9 N      101.2849 101.6313  80.5503   N.ar      1 RES1  31.8690
    10 C       98.8832  99.1979  79.7907   C.3       1 RES1  22.0810
    11 C       99.3098  97.7486  80.1069   C.3       1 RES1  20.9800
    12 C       98.1295  97.1853  80.9313   C.3       1 RES1  22.2270
    13 C       97.0832  98.3194  80.8894   C.3       1 RES1  22.2910
    14 O       97.9044  99.4850  80.7938   O.3       1 RES1  22.2910
    15 C       96.1961  98.3660  82.1488   C.3       1 RES1  22.2910
    16 O       95.0577  99.1928  81.8907   O.3       1 RES1   8.9790
    17 P       94.0288  98.8793  80.7066   P.3       1 RES1  15.8540
    18 O       92.6606  98.7164  81.2735   O.2       1 RES1  12.6480
    19 O       94.0280 100.1139  79.6885   O.3       1 RES1   3.2960
    20 O       94.4539  97.5167  79.9779   O.3       1 RES1   3.8620
    21 P       93.5453  97.1877  78.7001   P.3       1 RES1  17.3750
    22 O       92.3259  98.0439  78.6930   O.2       1 RES1   4.9890
    23 O       93.1187  95.6450  78.7247   O.3       1 RES1   2.5840
    24 O       94.3818  97.4451  77.3594   O.3       1 RES1   0.0000
    25 P       93.7039  96.7254  76.1002   P.3       1 RES1   0.8210
    26 O       94.4971  97.0353  74.8776   O.2       1 RES1   1.3050
    27 O       93.6774  95.1407  76.3217   O.3       1 RES1   0.9000
    28 O       92.2130  97.2723  75.9057   O.3       1 RES1   0.0000
    29 O       97.6207  95.9539  80.4033   O.3       1 RES1  10.2960
    30 O       99.5260  97.0145  78.8961   O.3       1 RES1  27.8160
    31 N      103.6106 102.6185  78.9324   N.pl3     1 RES1  36.8730
    32 H1     102.1589  99.6572  75.9292   H         1 RES1   0.0000
    33 H2      99.6270 100.9984  81.7996   H         1 RES1   0.0000
    34 H3      98.3988  99.2328  78.8026   H         1 RES1   0.0000
    35 H4     100.2233  97.7501  80.7225   H         1 RES1   0.0000
    36 H5      98.4663  97.0310  81.9676   H         1 RES1   0.0000
    37 H6      96.4635  98.2370  79.9832   H         1 RES1   0.0000
    38 H7      96.7676  98.7647  83.0001   H         1 RES1   0.0000
    39 H8      95.8573  97.3471  82.3834   H         1 RES1   0.0000
    40 H9      94.0471 100.9299  80.1749   H         1 RES1   0.0000
    41 H10     93.4796  95.1905  77.9735   H         1 RES1   0.0000
    42 H11     93.2084  94.9393  77.1228   H         1 RES1   0.0000
    43 H12     91.8911  97.6163  76.7306   H         1 RES1   0.0000
    44 H13     96.9149  96.1137  79.7872   H         1 RES1   0.0000
    45 H14    100.2976  96.4650  78.9762   H         1 RES1   0.0000
    46 H15    104.3881 102.9119  78.3233   H         1 RES1   0.0000
    47 H16    103.4876 103.0577  79.8559   H         1 RES1   0.0000
    48 ****   103.6309 101.3342  76.7177   Du        1 RES1  24.9290
    49 ****   100.3669  98.9713  77.3584   Du        1 RES1  23.6460
    50 ****   101.7171 102.3314  81.1187   Du        1 RES1  31.8690
    51 ****    98.3492  99.6693  81.6703   Du        1 RES1  22.2910
    52 ****    97.3546 100.2762  80.5261   Du        1 RES1  22.2910
    53 ****    92.3322  97.8085  81.5341   Du        1 RES1  13.8990
    54 ****    92.0707  99.5149  81.3934   Du        1 RES1   4.7390
    55 ****    93.2014 100.0810  79.1267   Du        1 RES1   3.2480
    56 ****    94.8340 100.0593  79.0991   Du        1 RES1  20.8150
    57 ****    92.3783  98.9859  78.3615   Du        1 RES1   0.8010
    58 ****    91.4551  97.6766  79.0198   Du        1 RES1   1.6140
    59 ****    92.1212  95.5784  78.7023   Du        1 RES1  14.0470
    60 ****    93.4624  95.2213  79.5628   Du        1 RES1  18.5870
    61 ****    94.0678  97.5123  74.1107   Du        1 RES1   0.0000
    62 ****    95.4587  96.7661  74.8239   Du        1 RES1   3.1480
    63 ****    94.6145  94.7982  76.3894   Du        1 RES1   2.3260
    64 ****    93.2180  94.7040  75.5481   Du        1 RES1   0.0000
    65 ****    91.6211  96.5255  75.6024   Du        1 RES1   0.0000
    66 ****    92.2116  97.9988  75.2185   Du        1 RES1   0.0000
    67 ****    97.2770  95.3925  81.1561   Du        1 RES1  20.8900
    68 ****    98.3594  95.4684  79.9358   Du        1 RES1  20.8900
    69 ****    99.6551  97.6562  78.1401   Du        1 RES1  20.4150
    70 ****    98.7289  96.4392  78.7126   Du        1 RES1  20.8900
@<TRIPOS>BOND
     1     1     2   ar
     2     2     3   ar
     3     3     4   ar
     4     4     5   ar
     5     5     6   ar
     6     1     6   ar
     7     5     7   ar
     8     7     8   ar
     9     8     9   ar
    10     4     9   ar
    11     7    10    1
    12    10    11    1
    13    11    12    1
    14    12    13    1
    15    13    14    1
    16    10    14    1
    17    13    15    1
    18    15    16    1
    19    16    17    1
    20    17    18    2
    21    17    19    1
    22    17    20    1
    23    20    21    1
    24    21    22    2
    25    21    23    1
    26    21    24    1
    27    24    25    1
    28    25    26    2
    29    25    27    1
    30    25    28    1
    31    12    29    1
    32    11    30    1
    33     3    31    1
    34     1    32    1
    35     8    33    1
    36    10    34    1
    37    11    35    1
    38    12    36    1
    39    13    37    1
    40    15    38    1
    41    15    39    1
    42    19    40    1
    43    23    41    1
    44    27    42    1
    45    28    43    1
    46    29    44    1
    47    30    45    1
    48    31    46    1
    49    31    47    1
    50     2    48    1
    51     6    49    1
    52     9    50    1
    53    14    51    1
    54    14    52    1
    55    18    53    1
    56    18    54    1
    57    19    55    1
    58    19    56    1
    59    22    57    1
    60    22    58    1
    61    23    59    1
    62    23    60    1
    63    26    61    1
    64    26    62    1
    65    27    63    1
    66    27    64    1
    67    28    65    1
    68    28    66    1
    69    29    67    1
    70    29    68    1
    71    30    69    1
    72    30    70    1
@<TRIPOS>SUBSTRUCTURE
     1 RES1        1 GROUP             0 ****  ****    0  
@<TRIPOS>MOLECULE
11.1442978163
    70    72     1     0     0
SMALL
USER_CHARGES
****
Generated from the CSD

@<TRIPOS>ATOM
     1 C       96.1114 106.5890  73.1308   C.ar      1 RES1   2.6160
     2 N       95.0241 107.2377  73.6082   N.ar      1 RES1   0.9500
     3 C       94.4876 106.9339  74.8089   C.ar      1 RES1   0.1380
     4 C       95.1032 105.9223  75.5409   C.ar      1 RES1   1.9080
     5 C       96.2208 105.2810  75.0307   C.ar      1 RES1   7.9890
     6 N       96.7254 105.6102  73.8296   N.ar      1 RES1   8.8150
     7 N       96.5920 104.3714  75.9478   N.ar      1 RES1  13.4720
     8 C       95.7398 104.4181  76.9922   C.ar      1 RES1   6.9170
     9 N       94.8275 105.3802  76.7415   N.ar      1 RES1   1.9080
    10 C       97.6329 103.5050  75.8032   C.3       1 RES1  15.3980
    11 C       98.9958 104.2293  75.7966   C.3       1 RES1  20.5250
    12 C       99.9226 103.2844  76.5956   C.3       1 RES1  23.8320
    13 C       99.0377 102.0483  76.8630   C.3       1 RES1  22.8670
    14 O       97.7296 102.6202  76.9232   O.3       1 RES1  21.7310
    15 C       99.3913 101.3289  78.1793   C.3       1 RES1  23.0640
    16 O      100.5502 101.9412  78.7522   O.3       1 RES1  23.7780
    17 P      101.9815 101.2266  78.7464   P.3       1 RES1  31.1390
    18 O      101.8872  99.9300  79.4744   O.2       1 RES1  31.9470
    19 O      102.4067 100.9438  77.2299   O.3       1 RES1  30.6030
    20 O      103.0477 102.1631  79.4911   O.3       1 RES1  23.7810
    21 P      104.5079 101.5074  79.5587   P.3       1 RES1  32.3700
    22 O      105.5016 102.4981  80.0599   O.2       1 RES1  29.2050
    23 O      104.9400 101.0022  78.1025   O.3       1 RES1  30.7720
    24 O      104.4871 100.2375  80.5335   O.3       1 RES1  29.0040
    25 P      105.5707 100.3808  81.7033   P.3       1 RES1  30.7470
    26 O      106.8974 100.6938  81.1019   O.2       1 RES1  27.4490
    27 O      105.1526 101.5629  82.6977   O.3       1 RES1   0.0000
    28 O      105.6771  99.0034  82.5103   O.3       1 RES1   0.0000
    29 O      101.1230 102.9530  75.8863   O.3       1 RES1  27.2480
    30 O       99.4509 104.4284  74.4532   O.3       1 RES1   3.6090
    31 N       93.4011 107.5801  75.2832   N.pl3     1 RES1   0.0000
    32 H1      96.5013 106.8635  72.1574   H         1 RES1   0.0000
    33 H2      95.7771 103.7936  77.8777   H         1 RES1   0.0000
    34 H3      97.5291 102.9053  74.8857   H         1 RES1   0.0000
    35 H4      98.9123 105.1949  76.3201   H         1 RES1   0.0000
    36 H5     100.1799 103.7683  77.5500   H         1 RES1   0.0000
    37 H6      99.0890 101.3484  76.0146   H         1 RES1   0.0000
    38 H7      99.5826 100.2624  77.9886   H         1 RES1   0.0000
    39 H8      98.5478 101.4281  78.8768   H         1 RES1   0.0000
    40 H9     103.3208 101.1712  77.1061   H         1 RES1   0.0000
    41 H10    105.0633 101.7412  77.5196   H         1 RES1   0.0000
    42 H11    105.8453 102.2121  82.7291   H         1 RES1   0.0000
    43 H12    106.5650  98.8898  82.8282   H         1 RES1   0.0000
    44 H13    100.9573 102.8780  74.9534   H         1 RES1   0.0000
    45 H14    100.3760 104.2213  74.3836   H         1 RES1   0.0000
    46 H15     92.9585 108.3262  74.7272   H         1 RES1   0.0000
    47 H16     93.0134 107.3263  76.2031   H         1 RES1   0.0000
    48 ****    94.6073 107.9607  73.0572   Du        1 RES1   0.0000
    49 ****    97.5314 105.1444  73.4643   Du        1 RES1   8.4800
    50 ****    94.0752 105.6452  77.3447   Du        1 RES1   0.0000
    51 ****    97.6110 103.1268  77.7772   Du        1 RES1  19.3580
    52 ****    97.0343 101.9041  76.8612   Du        1 RES1  22.2650
    53 ****   102.7041  99.5286  79.8885   Du        1 RES1  29.2970
    54 ****   101.0070  99.4612  79.5488   Du        1 RES1  26.2450
    55 ****   101.8408 101.4959  76.6175   Du        1 RES1  24.9290
    56 ****   102.2742  99.9745  77.0228   Du        1 RES1  23.6460
    57 ****   105.9812 103.0947  79.4164   Du        1 RES1  26.6280
    58 ****   105.6889 102.5665  81.0398   Du        1 RES1  29.2050
    59 ****   104.2253 100.4076  77.7344   Du        1 RES1  28.3910
    60 ****   105.7964 100.4905  78.1718   Du        1 RES1  23.9500
    61 ****   107.3656 100.0112  80.5407   Du        1 RES1  26.6280
    62 ****   107.3197 101.5864  81.2594   Du        1 RES1  26.6280
    63 ****   105.0036 101.1904  83.6137   Du        1 RES1  30.7470
    64 ****   104.3099 101.9907  82.3707   Du        1 RES1  32.3700
    65 ****   105.4401  98.2435  81.9050   Du        1 RES1  23.3900
    66 ****   105.0455  99.0217  83.2853   Du        1 RES1  30.7470
    67 ****   101.4742 102.0809  76.2272   Du        1 RES1  24.8440
    68 ****   101.8030 103.6696  76.0412   Du        1 RES1  24.8440
    69 ****    99.3064 105.3835  74.1942   Du        1 RES1  10.4280
    70 ****    98.9327 103.8342  73.8381   Du        1 RES1  10.4280
@<TRIPOS>BOND
     1     1     2   ar
     2     2     3   ar
     3     3     4   ar
     4     4     5   ar
     5     5     6   ar
     6     1     6   ar
     7     5     7   ar
     8     7     8   ar
     9     8     9   ar
    10     4     9   ar
    11     7    10    1
    12    10    11    1
    13    11    12    1
    14    12    13    1
    15    13    14    1
    16    10    14    1
    17    13    15    1
    18    15    16    1
    19    16    17    1
    20    17    18    2
    21    17    19    1
    22    17    20    1
    23    20    21    1
    24    21    22    2
    25    21    23    1
    26    21    24    1
    27    24    25    1
    28    25    26    2
    29    25    27    1
    30    25    28    1
    31    12    29    1
    32    11    30    1
    33     3    31    1
    34     1    32    1
    35     8    33    1
    36    10    34    1
    37    11    35    1
    38    12    36    1
    39    13    37    1
    40    15    38    1
    41    15    39    1
    42    19    40    1
    43    23    41    1
    44    27    42    1
    45    28    43    1
    46    29    44    1
    47    30    45    1
    48    31    46    1
    49    31    47    1
    50     2    48    1
    51     6    49    1
    52     9    50    1
    53    14    51    1
    54    14    52    1
    55    18    53    1
    56    18    54    1
    57    19    55    1
    58    19    56    1
    59    22    57    1
    60    22    58    1
    61    23    59    1
    62    23    60    1
    63    26    61    1
    64    26    62    1
    65    27    63    1
    66    27    64    1
    67    28    65    1
    68    28    66    1
    69    29    67    1
    70    29    68    1
    71    30    69    1
    72    30    70    1
@<TRIPOS>SUBSTRUCTURE
     1 RES1        1 GROUP             0 ****  ****    0  
@<TRIPOS>MOLECULE
11.0476595404
    70    72     1     0     0
SMALL
USER_CHARGES
****
Generated from the CSD

@<TRIPOS>ATOM
     1 C      101.4869 100.0603  77.3581   C.ar      1 RES1  25.8320
     2 N      102.5479 100.8705  77.5789   N.ar      1 RES1  28.3910
     3 C      102.9354 101.2070  78.8273   C.ar      1 RES1  31.5030
     4 C      102.1964 100.6820  79.8838   C.ar      1 RES1  32.3700
     5 C      101.1197  99.8479  79.6280   C.ar      1 RES1  27.9720
     6 N      100.7628  99.5366  78.3705   N.ar      1 RES1  23.6460
     7 N      100.6138  99.4986  80.8231   N.ar      1 RES1  24.9120
     8 C      101.3262 100.0957  81.8005   C.ar      1 RES1  31.8690
     9 N      102.3057 100.8187  81.2183   N.ar      1 RES1  32.3700
    10 C       99.5164  98.7117  81.0004   C.3       1 RES1  21.3640
    11 C       98.3807  99.4547  81.7357   C.3       1 RES1  22.2910
    12 C       97.0969  98.9659  81.0266   C.3       1 RES1  22.2910
    13 C       97.6102  97.8880  80.0482   C.3       1 RES1  20.9800
    14 O       98.9265  98.3556  79.7467   O.3       1 RES1  21.0590
    15 C       96.7535  97.7773  78.7718   C.3       1 RES1  20.8900
    16 O       95.4037  97.4764  79.1372   O.3       1 RES1   8.9790
    17 P       94.1901  97.6202  78.1048   P.3       1 RES1  16.2160
    18 O       94.0435  99.0503  77.7135   O.2       1 RES1  14.0790
    19 O       94.5215  96.7538  76.8010   O.3       1 RES1   0.0000
    20 O       92.8338  97.1325  78.8056   O.3       1 RES1   0.3310
    21 P       91.6650  98.2249  78.7209   P.3       1 RES1   0.3180
    22 O       90.3789  97.6513  79.2080   O.2       1 RES1   1.0050
    23 O       91.4951  98.7165  77.2070   O.3       1 RES1   0.0000
    24 O       92.0484  99.4991  79.6113   O.3       1 RES1   3.8620
    25 P       92.2711  99.0952  81.1444   P.3       1 RES1  10.4380
    26 O       93.5144  99.7471  81.6435   O.2       1 RES1  13.7290
    27 O       91.0298  99.5855  82.0276   O.3       1 RES1   0.3110
    28 O       92.4313  97.5079  81.2652   O.3       1 RES1  13.5310
    29 O       96.1189  98.4525  81.9397   O.3       1 RES1   5.1920
    30 O       98.3889  99.1280  83.1302   O.3       1 RES1   3.1730
    31 N      103.9928 102.0176  79.0465   N.pl3     1 RES1  40.3360
    32 H1     101.2097  99.8246  76.3370   H         1 RES1   0.0000
    33 H2     101.1460 100.0129  82.8664   H         1 RES1   0.0000
    34 H3      99.7695  97.7904  81.5475   H         1 RES1   0.0000
    35 H4      98.4891 100.5420  81.5961   H         1 RES1   0.0000
    36 H5      96.6670  99.8054  80.4594   H         1 RES1   0.0000
    37 H6      97.6787  96.9122  80.5532   H         1 RES1   0.0000
    38 H7      97.1519  96.9895  78.1154   H         1 RES1   0.0000
    39 H8      96.7787  98.7397  78.2416   H         1 RES1   0.0000
    40 H9      95.4588  96.6100  76.7419   H         1 RES1   0.0000
    41 H10     92.3182  99.0527  76.8745   H         1 RES1   0.0000
    42 H11     90.3952 100.0205  81.4705   H         1 RES1   0.0000
    43 H12     92.0705  97.2148  82.0936   H         1 RES1   0.0000
    44 H13     96.0742  97.5043  81.8927   H         1 RES1   0.0000
    45 H14     99.2699  99.1977  83.4807   H         1 RES1   0.0000
    46 H15    104.5279 102.3971  78.2519   H         1 RES1   0.0000
    47 H16    104.2650 102.2576  80.0104   H         1 RES1   0.0000
    48 ****   103.0581 101.2291  76.7972   Du        1 RES1  25.4070
    49 ****    99.9845  98.9353  78.1898   Du        1 RES1  23.6460
    50 ****   102.9949 101.3629  81.6966   Du        1 RES1  32.3700
    51 ****    98.8824  99.1529  79.1447   Du        1 RES1  22.7610
    52 ****    99.4589  97.6334  79.3050   Du        1 RES1  20.4150
    53 ****    94.0911  99.3123  76.7496   Du        1 RES1  10.2690
    54 ****    93.8974  99.7481  78.4147   Du        1 RES1  14.0790
    55 ****    94.2084  97.2441  75.9876   Du        1 RES1   3.5720
    56 ****    94.0530  95.8723  76.8596   Du        1 RES1   6.2610
    57 ****    90.1498  96.6983  79.0101   Du        1 RES1   2.1650
    58 ****    89.7450  98.2194  79.7328   Du        1 RES1   0.1370
    59 ****    90.8049  99.4392  77.1705   Du        1 RES1   0.0000
    60 ****    91.2012  97.9460  76.6412   Du        1 RES1   0.0000
    61 ****    93.6011  99.9835  82.6113   Du        1 RES1  10.1010
    62 ****    94.2621  99.9483  81.0108   Du        1 RES1  18.9800
    63 ****    91.3507 100.2231  82.7279   Du        1 RES1   0.8520
    64 ****    90.6013  98.7959  82.4669   Du        1 RES1   0.5980
    65 ****    93.4007  97.2665  81.2200   Du        1 RES1  16.3630
    66 ****    91.9422  97.0655  80.5136   Du        1 RES1  13.9410
    67 ****    95.2238  98.8340  81.7090   Du        1 RES1  20.5070
    68 ****    96.3665  98.7226  82.8702   Du        1 RES1  22.2910
    69 ****    98.0589  98.1918  83.2515   Du        1 RES1  22.2910
    70 ****    97.7881  99.7594  83.6204   Du        1 RES1  22.2910
@<TRIPOS>BOND
     1     1     2   ar
     2     2     3   ar
     3     3     4   ar
     4     4     5   ar
     5     5     6   ar
     6     1     6   ar
     7     5     7   ar
     8     7     8   ar
     9     8     9   ar
    10     4     9   ar
    11     7    10    1
    12    10    11    1
    13    11    12    1
    14    12    13    1
    15    13    14    1
    16    10    14    1
    17    13    15    1
    18    15    16    1
    19    16    17    1
    20    17    18    2
    21    17    19    1
    22    17    20    1
    23    20    21    1
    24    21    22    2
    25    21    23    1
    26    21    24    1
    27    24    25    1
    28    25    26    2
    29    25    27    1
    30    25    28    1
    31    12    29    1
    32    11    30    1
    33     3    31    1
    34     1    32    1
    35     8    33    1
    36    10    34    1
    37    11    35    1
    38    12    36    1
    39    13    37    1
    40    15    38    1
    41    15    39    1
    42    19    40    1
    43    23    41    1
    44    27    42    1
    45    28    43    1
    46    29    44    1
    47    30    45    1
    48    31    46    1
    49    31    47    1
    50     2    48    1
    51     6    49    1
    52     9    50    1
    53    14    51    1
    54    14    52    1
    55    18    53    1
    56    18    54    1
    57    19    55    1
    58    19    56    1
    59    22    57    1
    60    22    58    1
    61    23    59    1
    62    23    60    1
    63    26    61    1
    64    26    62    1
    65    27    63    1
    66    27    64    1
    67    28    65    1
    68    28    66    1
    69    29    67    1
    70    29    68    1
    71    30    69    1
    72    30    70    1
@<TRIPOS>SUBSTRUCTURE
     1 RES1        1 GROUP             0 ****  ****    0  
