@<TRIPOS>MOLECULE
constraints
     3     0     1     0     0
SMALL
NO_CHARGES
****
Generated from the CSD - Crystal connectivity not present

@<TRIPOS>ATOM
     1 Du      21.2975  -2.6338  56.8410   C.3       1 RES1   0.0000
     2 Du      29.3433   2.8234  50.9644   C.3       1 RES1   0.0000
     3 Du      32.0535   2.6200  52.6728   C.3       1 RES1   0.0000
@<TRIPOS>SUBSTRUCTURE
     1 RES1        1 GROUP             0 ****  ****    0  
