@<TRIPOS>MOLECULE
8.88807678223
    62    64     1     0     0
SMALL
USER_CHARGES
****
Generated from the CSD

@<TRIPOS>ATOM
     1 C       22.0323  -0.9513  54.9555   C.3       1 RES1  16.3210
     2 O       23.0991  -1.6783  55.5802   O.3       1 RES1  15.6760
     3 C       24.3814  -1.1874  55.1641   C.3       1 RES1  17.9010
     4 C       24.5641   0.2373  55.7215   C.3       1 RES1  17.8810
     5 O       25.9506   0.5921  55.6213   O.3       1 RES1  17.9010
     6 C       26.3005   1.1869  54.4102   C.ar      1 RES1  17.9010
     7 C       25.3174   1.6014  53.5088   C.ar      1 RES1  17.9010
     8 C       25.6706   2.3289  52.3694   C.ar      1 RES1  17.9010
     9 C       27.0208   2.4835  52.0528   C.ar      1 RES1  14.3430
    10 C       28.0087   1.9896  52.9053   C.ar      1 RES1  17.3240
    11 C       27.6497   1.3627  54.1007   C.ar      1 RES1  17.5030
    12 O       28.6216   0.8963  54.9864   O.3       1 RES1  17.0760
    13 C       29.8620   0.4746  54.3997   C.3       1 RES1  17.0370
    14 C       29.6284  -0.6014  53.3190   C.3       1 RES1  17.6430
    15 O       28.6816  -1.5611  53.8108   O.3       1 RES1  17.3970
    16 C       28.5430  -2.6652  52.9051   C.3       1 RES1  17.3970
    17 N       27.3758   3.1074  50.9138   N.ar      1 RES1   7.6930
    18 C       26.4378   3.5375  50.0486   C.ar      1 RES1  17.7480
    19 N       25.1277   3.4227  50.3390   N.ar      1 RES1  17.7480
    20 C       24.7249   2.9048  51.5151   C.ar      1 RES1  17.7430
    21 N       23.4080   2.9595  51.8201   N.pl3     1 RES1   0.0000
    22 C       22.4728   2.3023  51.0939   C.ar      1 RES1  16.9310
    23 C       22.5866   2.2618  49.7021   C.ar      1 RES1  14.9180
    24 C       21.6559   1.5575  48.9369   C.ar      1 RES1  14.4870
    25 C       20.5968   0.8975  49.5602   C.ar      1 RES1  14.5400
    26 C       20.4607   0.9613  50.9471   C.ar      1 RES1  15.9490
    27 C       21.3910   1.6671  51.7116   C.ar      1 RES1  16.9310
    28 C       19.3541   0.3002  51.5892   C.1       1 RES1  16.5100
    29 C       18.4281  -0.2540  52.1224   C.1       1 RES1  15.8790
    30 H1      22.0862  -1.0535  53.8613   H         1 RES1   0.0000
    31 H2      22.0821   0.1137  55.2280   H         1 RES1   0.0000
    32 H3      21.0754  -1.3648  55.3063   H         1 RES1   0.0000
    33 H4      25.1822  -1.8320  55.5572   H         1 RES1   0.0000
    34 H5      24.4431  -1.1540  54.0655   H         1 RES1   0.0000
    35 H6      23.9235   0.9249  55.1507   H         1 RES1   0.0000
    36 H7      24.2586   0.2493  56.7780   H         1 RES1   0.0000
    37 H8      24.2824   1.3452  53.6928   H         1 RES1   0.0000
    38 H9      29.0494   2.0945  52.6238   H         1 RES1   0.0000
    39 H10     30.5596   0.0934  55.1588   H         1 RES1   0.0000
    40 H11     30.3191   1.3527  53.9194   H         1 RES1   0.0000
    41 H12     30.5801  -1.0954  53.0708   H         1 RES1   0.0000
    42 H13     29.2323  -0.1070  52.4188   H         1 RES1   0.0000
    43 H14     28.1583  -2.3183  51.9345   H         1 RES1   0.0000
    44 H15     27.8312  -3.3872  53.3313   H         1 RES1   0.0000
    45 H16     29.5115  -3.1636  52.7555   H         1 RES1   0.0000
    46 H17     26.7409   3.9826  49.1079   H         1 RES1   0.0000
    47 H18     23.1178   3.4767  52.6625   H         1 RES1   0.0000
    48 H19     23.4041   2.7750  49.2081   H         1 RES1   0.0000
    49 H20     21.7566   1.5227  47.8577   H         1 RES1   0.0000
    50 H21     19.8805   0.3387  48.9683   H         1 RES1   0.0000
    51 H22     21.2576   1.7195  52.7860   H         1 RES1   0.0000
    52 H23     17.6158  -0.7403  52.5899   H         1 RES1   0.0000
    53 ****    23.0240  -2.6439  55.3315   Du        1 RES1   9.7940
    54 ****    23.0205  -1.5826  56.5725   Du        1 RES1   9.7720
    55 ****    26.4961  -0.2386  55.7321   Du        1 RES1  17.9010
    56 ****    26.1649   1.2324  56.3589   Du        1 RES1  16.6860
    57 ****    28.2362   0.1163  55.4794   Du        1 RES1  17.1950
    58 ****    28.8240   1.6321  55.6327   Du        1 RES1  16.3860
    59 ****    27.7930  -1.1158  53.9205   Du        1 RES1  17.2460
    60 ****    28.9946  -1.9033  54.6968   Du        1 RES1  16.4670
    61 ****    28.3437   3.2526  50.7088   Du        1 RES1   1.2320
    62 ****    24.4458   3.7256  49.6732   Du        1 RES1  17.7480
@<TRIPOS>BOND
     1     1     2    1
     2     2     3    1
     3     3     4    1
     4     4     5    1
     5     5     6    1
     6     6     7   ar
     7     7     8   ar
     8     8     9   ar
     9     9    10   ar
    10    10    11   ar
    11     6    11   ar
    12    11    12    1
    13    12    13    1
    14    13    14    1
    15    14    15    1
    16    15    16    1
    17     9    17   ar
    18    17    18   ar
    19    18    19   ar
    20    19    20   ar
    21     8    20   ar
    22    20    21    1
    23    21    22    1
    24    22    23   ar
    25    23    24   ar
    26    24    25   ar
    27    25    26   ar
    28    26    27   ar
    29    22    27   ar
    30    26    28    1
    31    28    29    3
    32     1    30    1
    33     1    31    1
    34     1    32    1
    35     3    33    1
    36     3    34    1
    37     4    35    1
    38     4    36    1
    39     7    37    1
    40    10    38    1
    41    13    39    1
    42    13    40    1
    43    14    41    1
    44    14    42    1
    45    16    43    1
    46    16    44    1
    47    16    45    1
    48    18    46    1
    49    21    47    1
    50    23    48    1
    51    24    49    1
    52    25    50    1
    53    27    51    1
    54    29    52    1
    55     2    53    1
    56     2    54    1
    57     5    55    1
    58     5    56    1
    59    12    57    1
    60    12    58    1
    61    15    59    1
    62    15    60    1
    63    17    61    1
    64    19    62    1
@<TRIPOS>SUBSTRUCTURE
     1 RES1        1 GROUP             0 ****  ****    0  
@<TRIPOS>MOLECULE
8.84532675376
    62    64     1     0     0
SMALL
USER_CHARGES
****
Generated from the CSD

@<TRIPOS>ATOM
     1 C       21.2266  -1.2427  54.5698   C.3       1 RES1  17.8750
     2 O       22.0530  -1.7884  55.6071   O.3       1 RES1  10.1610
     3 C       23.4324  -1.8233  55.2137   C.3       1 RES1  17.1330
     4 C       23.8650  -0.3979  54.8203   C.3       1 RES1  17.9010
     5 O       25.2936  -0.3741  54.6904   O.3       1 RES1  17.9010
     6 C       25.7629   0.5099  53.7203   C.ar      1 RES1  17.9010
     7 C       24.8724   1.2258  52.9171   C.ar      1 RES1  17.9010
     8 C       25.3462   2.2167  52.0534   C.ar      1 RES1  17.9010
     9 C       26.7224   2.3609  51.8736   C.ar      1 RES1  17.9010
    10 C       27.6175   1.5822  52.6078   C.ar      1 RES1  17.3610
    11 C       27.1387   0.6725  53.5533   C.ar      1 RES1  17.9010
    12 O       28.0166  -0.0881  54.3261   O.3       1 RES1  17.1950
    13 C       29.3750  -0.1482  53.8659   C.3       1 RES1  17.6430
    14 C       29.9008  -1.5986  53.8733   C.3       1 RES1  17.6430
    15 O       28.7876  -2.5006  53.7941   O.3       1 RES1  17.6430
    16 C       28.0089  -2.2622  52.6128   C.3       1 RES1  16.7580
    17 N       27.1929   3.2524  50.9811   N.ar      1 RES1  11.7250
    18 C       26.3454   3.9701  50.2195   C.ar      1 RES1  15.9520
    19 N       25.0130   3.8685  50.3878   N.ar      1 RES1  17.3650
    20 C       24.4973   3.0715  51.3430   C.ar      1 RES1  17.7430
    21 N       23.1654   3.1288  51.5730   N.pl3     1 RES1   0.0000
    22 C       22.2767   2.4182  50.8386   C.ar      1 RES1  16.9310
    23 C       22.5116   2.2231  49.4754   C.ar      1 RES1  14.9060
    24 C       21.6294   1.4614  48.7079   C.ar      1 RES1  14.3900
    25 C       20.4981   0.8984  49.2986   C.ar      1 RES1  14.5400
    26 C       20.2421   1.1166  50.6525   C.ar      1 RES1  14.8570
    27 C       21.1241   1.8799  51.4192   C.ar      1 RES1  15.1470
    28 C       19.0618   0.5558  51.2576   C.1       1 RES1  16.1470
    29 C       18.0773   0.0857  51.7663   C.1       1 RES1  15.5350
    30 H1      21.2953  -1.8573  53.6597   H         1 RES1   0.0000
    31 H2      21.5302  -0.2103  54.3398   H         1 RES1   0.0000
    32 H3      20.1839  -1.2382  54.9199   H         1 RES1   0.0000
    33 H4      24.0584  -2.1705  56.0498   H         1 RES1   0.0000
    34 H5      23.5698  -2.4918  54.3500   H         1 RES1   0.0000
    35 H6      23.3641  -0.1233  53.8807   H         1 RES1   0.0000
    36 H7      23.5578   0.3001  55.6128   H         1 RES1   0.0000
    37 H8      23.8152   0.9998  52.9596   H         1 RES1   0.0000
    38 H9      28.6804   1.6901  52.4294   H         1 RES1   0.0000
    39 H10     30.0355   0.4895  54.4704   H         1 RES1   0.0000
    40 H11     29.3924   0.2200  52.8292   H         1 RES1   0.0000
    41 H12     30.4780  -1.7829  54.7922   H         1 RES1   0.0000
    42 H13     30.5584  -1.7325  53.0007   H         1 RES1   0.0000
    43 H14     27.5856  -1.2469  52.6317   H         1 RES1   0.0000
    44 H15     27.1848  -2.9895  52.5777   H         1 RES1   0.0000
    45 H16     28.6293  -2.3810  51.7130   H         1 RES1   0.0000
    46 H17     26.7403   4.6384  49.4630   H         1 RES1   0.0000
    47 H18     22.8253   3.6921  52.3658   H         1 RES1   0.0000
    48 H19     23.3862   2.6600  49.0063   H         1 RES1   0.0000
    49 H20     21.8239   1.3065  47.6524   H         1 RES1   0.0000
    50 H21     19.8187   0.2951  48.7067   H         1 RES1   0.0000
    51 H22     20.8981   2.0525  52.4651   H         1 RES1   0.0000
    52 H23     17.2139  -0.3267  52.2129   H         1 RES1   0.0000
    53 ****    21.7488  -2.7192  55.8096   Du        1 RES1   3.4900
    54 ****    21.9627  -1.2225  56.4266   Du        1 RES1   4.4330
    55 ****    25.6025  -1.2948  54.4519   Du        1 RES1  17.7850
    56 ****    25.6845  -0.1093  55.5719   Du        1 RES1  17.9010
    57 ****    27.6635  -1.0231  54.3583   Du        1 RES1  17.0960
    58 ****    28.0236   0.2975  55.2488   Du        1 RES1  17.1950
    59 ****    28.2071  -2.3735  54.5984   Du        1 RES1  12.4340
    60 ****    29.1298  -3.4400  53.7750   Du        1 RES1  13.1820
    61 ****    28.1795   3.3825  50.8829   Du        1 RES1   4.4920
    62 ****    24.3991   4.3913  49.7962   Du        1 RES1  16.1410
@<TRIPOS>BOND
     1     1     2    1
     2     2     3    1
     3     3     4    1
     4     4     5    1
     5     5     6    1
     6     6     7   ar
     7     7     8   ar
     8     8     9   ar
     9     9    10   ar
    10    10    11   ar
    11     6    11   ar
    12    11    12    1
    13    12    13    1
    14    13    14    1
    15    14    15    1
    16    15    16    1
    17     9    17   ar
    18    17    18   ar
    19    18    19   ar
    20    19    20   ar
    21     8    20   ar
    22    20    21    1
    23    21    22    1
    24    22    23   ar
    25    23    24   ar
    26    24    25   ar
    27    25    26   ar
    28    26    27   ar
    29    22    27   ar
    30    26    28    1
    31    28    29    3
    32     1    30    1
    33     1    31    1
    34     1    32    1
    35     3    33    1
    36     3    34    1
    37     4    35    1
    38     4    36    1
    39     7    37    1
    40    10    38    1
    41    13    39    1
    42    13    40    1
    43    14    41    1
    44    14    42    1
    45    16    43    1
    46    16    44    1
    47    16    45    1
    48    18    46    1
    49    21    47    1
    50    23    48    1
    51    24    49    1
    52    25    50    1
    53    27    51    1
    54    29    52    1
    55     2    53    1
    56     2    54    1
    57     5    55    1
    58     5    56    1
    59    12    57    1
    60    12    58    1
    61    15    59    1
    62    15    60    1
    63    17    61    1
    64    19    62    1
@<TRIPOS>SUBSTRUCTURE
     1 RES1        1 GROUP             0 ****  ****    0  
@<TRIPOS>MOLECULE
8.84276909095
    62    64     1     0     0
SMALL
USER_CHARGES
****
Generated from the CSD

@<TRIPOS>ATOM
     1 C       20.8338  -1.7155  54.4010   C.3       1 RES1  15.8640
     2 O       21.9922  -2.1018  55.1530   O.3       1 RES1  12.5940
     3 C       22.8424  -0.9774  55.4198   C.3       1 RES1  15.7230
     4 C       23.4208  -0.4736  54.0836   C.3       1 RES1  17.9010
     5 O       24.8439  -0.3527  54.2190   O.3       1 RES1  17.9010
     6 C       25.4263   0.5494  53.3303   C.ar      1 RES1  17.9010
     7 C       24.6336   1.3494  52.5043   C.ar      1 RES1  17.9010
     8 C       25.2181   2.3529  51.7273   C.ar      1 RES1  17.9010
     9 C       26.6093   2.4310  51.6517   C.ar      1 RES1  17.9010
    10 C       27.4084   1.5713  52.4061   C.ar      1 RES1  17.3610
    11 C       26.8171   0.6452  53.2683   C.ar      1 RES1  17.9010
    12 O       27.5972  -0.1972  54.0610   O.3       1 RES1  17.4590
    13 C       29.0190  -0.0367  53.9456   C.3       1 RES1  17.6430
    14 C       29.6881  -1.3399  53.4618   C.3       1 RES1  17.6430
    15 O       28.8393  -2.4504  53.7864   O.3       1 RES1  17.6430
    16 C       27.8188  -2.6317  52.7942   C.3       1 RES1  16.7580
    17 N       27.1875   3.3368  50.8407   N.ar      1 RES1  11.7250
    18 C       26.4347   4.1343  50.0593   C.ar      1 RES1  15.9520
    19 N       25.0902   4.0970  50.1287   N.ar      1 RES1  17.6550
    20 C       24.4671   3.2848  51.0038   C.ar      1 RES1  17.7480
    21 N       23.1266   3.4030  51.1427   N.pl3     1 RES1   0.0000
    22 C       22.2654   2.5042  50.6091   C.ar      1 RES1  16.1550
    23 C       22.3994   2.1362  49.2682   C.ar      1 RES1  14.9060
    24 C       21.5477   1.1830  48.7081   C.ar      1 RES1  13.6630
    25 C       20.5470   0.5993  49.4852   C.ar      1 RES1  14.5400
    26 C       20.3887   0.9866  50.8160   C.ar      1 RES1  15.9490
    27 C       21.2400   1.9411  51.3750   C.ar      1 RES1  15.1470
    28 C       19.3406   0.4021  51.6120   C.1       1 RES1  16.5100
    29 C       18.4645  -0.0897  52.2751   C.1       1 RES1  15.8790
    30 H1      21.1296  -1.2873  53.4315   H         1 RES1   0.0000
    31 H2      20.2396  -0.9785  54.9622   H         1 RES1   0.0000
    32 H3      20.2181  -2.6095  54.2238   H         1 RES1   0.0000
    33 H4      22.2654  -0.1663  55.8896   H         1 RES1   0.0000
    34 H5      23.6713  -1.2698  56.0826   H         1 RES1   0.0000
    35 H6      23.1441  -1.1820  53.2894   H         1 RES1   0.0000
    36 H7      22.9896   0.5124  53.8568   H         1 RES1   0.0000
    37 H8      23.5660   1.1790  52.4613   H         1 RES1   0.0000
    38 H9      28.4855   1.6301  52.3081   H         1 RES1   0.0000
    39 H10     29.4688   0.2809  54.8970   H         1 RES1   0.0000
    40 H11     29.2064   0.7464  53.1957   H         1 RES1   0.0000
    41 H12     30.6714  -1.4567  53.9424   H         1 RES1   0.0000
    42 H13     29.8244  -1.2746  52.3715   H         1 RES1   0.0000
    43 H14     27.1679  -1.7459  52.7482   H         1 RES1   0.0000
    44 H15     27.2096  -3.5059  53.0666   H         1 RES1   0.0000
    45 H16     28.2695  -2.8037  51.8062   H         1 RES1   0.0000
    46 H17     26.9166   4.8153  49.3672   H         1 RES1   0.0000
    47 H18     22.7561   4.1740  51.7169   H         1 RES1   0.0000
    48 H19     23.1717   2.5873  48.6550   H         1 RES1   0.0000
    49 H20     21.6643   0.8955  47.6691   H         1 RES1   0.0000
    50 H21     19.8930  -0.1512  49.0554   H         1 RES1   0.0000
    51 H22     21.0892   2.2414  52.4055   H         1 RES1   0.0000
    52 H23     17.6961  -0.5214  52.8566   H         1 RES1   0.0000
    53 ****    22.5068  -2.7822  54.6312   Du        1 RES1   9.1040
    54 ****    21.6980  -2.5006  56.0216   Du        1 RES1   3.4900
    55 ****    25.2515  -1.2528  54.0648   Du        1 RES1  17.9010
    56 ****    25.0461  -0.0505  55.1506   Du        1 RES1  17.9010
    57 ****    27.3754  -1.1405  53.8141   Du        1 RES1  17.2460
    58 ****    27.3481  -0.0351  55.0158   Du        1 RES1  17.4590
    59 ****    28.4066  -2.2822  54.6721   Du        1 RES1  14.8220
    60 ****    29.3942  -3.2807  53.8388   Du        1 RES1  13.1820
    61 ****    28.1839   3.4181  50.8185   Du        1 RES1   4.4920
    62 ****    24.5479   4.6794  49.5230   Du        1 RES1  17.7480
@<TRIPOS>BOND
     1     1     2    1
     2     2     3    1
     3     3     4    1
     4     4     5    1
     5     5     6    1
     6     6     7   ar
     7     7     8   ar
     8     8     9   ar
     9     9    10   ar
    10    10    11   ar
    11     6    11   ar
    12    11    12    1
    13    12    13    1
    14    13    14    1
    15    14    15    1
    16    15    16    1
    17     9    17   ar
    18    17    18   ar
    19    18    19   ar
    20    19    20   ar
    21     8    20   ar
    22    20    21    1
    23    21    22    1
    24    22    23   ar
    25    23    24   ar
    26    24    25   ar
    27    25    26   ar
    28    26    27   ar
    29    22    27   ar
    30    26    28    1
    31    28    29    3
    32     1    30    1
    33     1    31    1
    34     1    32    1
    35     3    33    1
    36     3    34    1
    37     4    35    1
    38     4    36    1
    39     7    37    1
    40    10    38    1
    41    13    39    1
    42    13    40    1
    43    14    41    1
    44    14    42    1
    45    16    43    1
    46    16    44    1
    47    16    45    1
    48    18    46    1
    49    21    47    1
    50    23    48    1
    51    24    49    1
    52    25    50    1
    53    27    51    1
    54    29    52    1
    55     2    53    1
    56     2    54    1
    57     5    55    1
    58     5    56    1
    59    12    57    1
    60    12    58    1
    61    15    59    1
    62    15    60    1
    63    17    61    1
    64    19    62    1
@<TRIPOS>SUBSTRUCTURE
     1 RES1        1 GROUP             0 ****  ****    0  
@<TRIPOS>MOLECULE
8.75419218724
    62    64     1     0     0
SMALL
USER_CHARGES
****
Generated from the CSD

@<TRIPOS>ATOM
     1 C       20.6754  -1.5048  54.3796   C.3       1 RES1  16.0630
     2 O       21.8008  -2.1235  55.0179   O.3       1 RES1  12.5940
     3 C       22.8435  -1.1729  55.2776   C.3       1 RES1  15.7230
     4 C       23.1848  -0.4494  53.9609   C.3       1 RES1  17.9010
     5 O       24.5286  -0.7879  53.5893   O.3       1 RES1  17.9010
     6 C       25.1894   0.2077  52.8716   C.ar      1 RES1  17.9010
     7 C       24.4721   1.1355  52.1131   C.ar      1 RES1  17.9010
     8 C       25.1296   2.2164  51.5199   C.ar      1 RES1  17.9010
     9 C       26.5240   2.2615  51.5458   C.ar      1 RES1  17.9010
    10 C       27.2512   1.2840  52.2258   C.ar      1 RES1  16.4140
    11 C       26.5828   0.2686  52.9133   C.ar      1 RES1  17.9010
    12 O       27.2889  -0.6964  53.6322   O.3       1 RES1  17.3610
    13 C       28.6993  -0.7702  53.3755   C.3       1 RES1  17.6430
    14 C       29.4949   0.0690  54.3968   C.3       1 RES1  17.6430
    15 O       28.6639   1.1375  54.8733   O.3       1 RES1  17.0760
    16 C       29.0781   2.3994  54.3306   C.3       1 RES1  12.6330
    17 N       27.1753   3.2504  50.9052   N.ar      1 RES1  11.7250
    18 C       26.4948   4.1686  50.1929   C.ar      1 RES1  15.9520
    19 N       25.1482   4.1631  50.1696   N.ar      1 RES1  17.6550
    20 C       24.4497   3.2598  50.8835   C.ar      1 RES1  17.7480
    21 N       23.1057   3.3989  50.9503   N.pl3     1 RES1   0.0000
    22 C       22.2595   2.4356  50.5141   C.ar      1 RES1  16.1550
    23 C       22.3880   1.9460  49.2121   C.ar      1 RES1  14.6660
    24 C       21.5522   0.9262  48.7546   C.ar      1 RES1  13.8920
    25 C       20.5730   0.3969  49.5954   C.ar      1 RES1  14.5400
    26 C       20.4197   0.9042  50.8858   C.ar      1 RES1  15.9490
    27 C       21.2550   1.9252  51.3421   C.ar      1 RES1  16.0900
    28 C       19.3933   0.3748  51.7461   C.1       1 RES1  16.5100
    29 C       18.5376  -0.0670  52.4682   C.1       1 RES1  15.8790
    30 H1      20.9726  -1.0681  53.4144   H         1 RES1   0.0000
    31 H2      20.2525  -0.7191  55.0237   H         1 RES1   0.0000
    32 H3      19.9080  -2.2727  54.2031   H         1 RES1   0.0000
    33 H4      22.5072  -0.4311  56.0180   H         1 RES1   0.0000
    34 H5      23.7448  -1.6823  55.6518   H         1 RES1   0.0000
    35 H6      22.4591  -0.7528  53.1926   H         1 RES1   0.0000
    36 H7      23.1118   0.6363  54.1206   H         1 RES1   0.0000
    37 H8      23.4065   1.0050  51.9783   H         1 RES1   0.0000
    38 H9      28.3335   1.3226  52.2065   H         1 RES1   0.0000
    39 H10     28.9425  -0.4419  52.3551   H         1 RES1   0.0000
    40 H11     29.0030  -1.8224  53.4822   H         1 RES1   0.0000
    41 H12     30.4029   0.4725  53.9234   H         1 RES1   0.0000
    42 H13     29.7839  -0.5864  55.2326   H         1 RES1   0.0000
    43 H14     30.1035   2.6363  54.6515   H         1 RES1   0.0000
    44 H15     28.4011   3.1840  54.6987   H         1 RES1   0.0000
    45 H16     29.0366   2.3777  53.2321   H         1 RES1   0.0000
    46 H17     27.0372   4.9216  49.6330   H         1 RES1   0.0000
    47 H18     22.7186   4.2438  51.3949   H         1 RES1   0.0000
    48 H19     23.1435   2.3538  48.5497   H         1 RES1   0.0000
    49 H20     21.6646   0.5447  47.7457   H         1 RES1   0.0000
    50 H21     19.9317  -0.4047  49.2461   H         1 RES1   0.0000
    51 H22     21.1081   2.3178  52.3417   H         1 RES1   0.0000
    52 H23     17.7871  -0.4544  53.1021   H         1 RES1   0.0000
    53 ****    22.1576  -2.8431  54.4221   Du        1 RES1  10.4540
    54 ****    21.5033  -2.5250  55.8841   Du        1 RES1   3.4900
    55 ****    24.5000  -1.6141  53.0266   Du        1 RES1  17.9010
    56 ****    25.0484  -0.9709  54.4238   Du        1 RES1  17.9010
    57 ****    26.8922  -1.5887  53.4167   Du        1 RES1  17.5120
    58 ****    27.1654  -0.5031  54.6056   Du        1 RES1  17.5500
    59 ****    28.7230   1.1764  55.8708   Du        1 RES1  16.8910
    60 ****    27.7178   0.9606  54.6021   Du        1 RES1  17.5030
    61 ****    28.1725   3.3035  50.9587   Du        1 RES1   4.4920
    62 ****    24.6611   4.8381  49.6154   Du        1 RES1  16.0030
@<TRIPOS>BOND
     1     1     2    1
     2     2     3    1
     3     3     4    1
     4     4     5    1
     5     5     6    1
     6     6     7   ar
     7     7     8   ar
     8     8     9   ar
     9     9    10   ar
    10    10    11   ar
    11     6    11   ar
    12    11    12    1
    13    12    13    1
    14    13    14    1
    15    14    15    1
    16    15    16    1
    17     9    17   ar
    18    17    18   ar
    19    18    19   ar
    20    19    20   ar
    21     8    20   ar
    22    20    21    1
    23    21    22    1
    24    22    23   ar
    25    23    24   ar
    26    24    25   ar
    27    25    26   ar
    28    26    27   ar
    29    22    27   ar
    30    26    28    1
    31    28    29    3
    32     1    30    1
    33     1    31    1
    34     1    32    1
    35     3    33    1
    36     3    34    1
    37     4    35    1
    38     4    36    1
    39     7    37    1
    40    10    38    1
    41    13    39    1
    42    13    40    1
    43    14    41    1
    44    14    42    1
    45    16    43    1
    46    16    44    1
    47    16    45    1
    48    18    46    1
    49    21    47    1
    50    23    48    1
    51    24    49    1
    52    25    50    1
    53    27    51    1
    54    29    52    1
    55     2    53    1
    56     2    54    1
    57     5    55    1
    58     5    56    1
    59    12    57    1
    60    12    58    1
    61    15    59    1
    62    15    60    1
    63    17    61    1
    64    19    62    1
@<TRIPOS>SUBSTRUCTURE
     1 RES1        1 GROUP             0 ****  ****    0  
@<TRIPOS>MOLECULE
8.73140377265
    62    64     1     0     0
SMALL
USER_CHARGES
****
Generated from the CSD

@<TRIPOS>ATOM
     1 C       20.1029  -0.6108  53.7574   C.3       1 RES1  17.6520
     2 O       21.2539  -1.4082  54.0670   O.3       1 RES1  17.8700
     3 C       22.2712  -0.6305  54.7143   C.3       1 RES1  17.9010
     4 C       23.4147  -0.3886  53.7104   C.3       1 RES1  17.9010
     5 O       22.8437   0.0046  52.4544   O.3       1 RES1  17.9010
     6 C       23.5342   1.0301  51.8106   C.ar      1 RES1  17.9010
     7 C       24.8428   1.3498  52.1792   C.ar      1 RES1  17.9010
     8 C       25.5772   2.2745  51.4322   C.ar      1 RES1  17.9010
     9 C       24.9356   3.0001  50.4278   C.ar      1 RES1  17.7480
    10 C       23.5990   2.7485  50.1166   C.ar      1 RES1  16.6840
    11 C       22.9025   1.7429  50.7908   C.ar      1 RES1  16.9880
    12 O       21.5774   1.4481  50.4688   O.3       1 RES1  15.3110
    13 C       21.1557   1.7986  49.1422   C.3       1 RES1  13.7180
    14 C       19.6270   1.9971  49.0791   C.3       1 RES1  10.8850
    15 O       19.0167   1.2795  50.1615   O.3       1 RES1  14.0690
    16 C       17.6274   1.0315  49.9024   C.3       1 RES1  12.9770
    17 N       25.6066   3.9552  49.7569   N.ar      1 RES1  17.3650
    18 C       26.8784   4.2549  50.0829   C.ar      1 RES1  14.7570
    19 N       27.5298   3.5554  51.0317   N.ar      1 RES1   6.8370
    20 C       26.9361   2.5192  51.6542   C.ar      1 RES1  14.3430
    21 N       27.6866   1.7549  52.4806   N.pl3     1 RES1   0.0000
    22 C       27.2071   0.6221  53.0472   C.ar      1 RES1  17.6290
    23 C       27.1586  -0.5548  52.2961   C.ar      1 RES1  17.6340
    24 C       26.7047  -1.7425  52.8716   C.ar      1 RES1  17.8990
    25 C       26.2848  -1.7572  54.2018   C.ar      1 RES1  17.6900
    26 C       26.3014  -0.5778  54.9467   C.ar      1 RES1  17.9010
    27 C       26.7540   0.6100  54.3700   C.ar      1 RES1  17.9010
    28 C       25.8455  -0.5872  56.3127   C.1       1 RES1  16.9270
    29 C       25.4608  -0.5955  57.4532   C.1       1 RES1  15.8420
    30 H1      20.3751   0.2097  53.0766   H         1 RES1   0.0000
    31 H2      19.6649  -0.1949  54.6773   H         1 RES1   0.0000
    32 H3      19.3565  -1.2511  53.2649   H         1 RES1   0.0000
    33 H4      21.8630   0.3404  55.0340   H         1 RES1   0.0000
    34 H5      22.6686  -1.1676  55.5891   H         1 RES1   0.0000
    35 H6      24.0831   0.3846  54.1159   H         1 RES1   0.0000
    36 H7      23.9787  -1.3236  53.5794   H         1 RES1   0.0000
    37 H8      25.2795   0.8857  53.0536   H         1 RES1   0.0000
    38 H9      23.1133   3.3452  49.3540   H         1 RES1   0.0000
    39 H10     21.4627   1.0415  48.4068   H         1 RES1   0.0000
    40 H11     21.6386   2.7519  48.8798   H         1 RES1   0.0000
    41 H12     19.2420   1.6340  48.1140   H         1 RES1   0.0000
    42 H13     19.4139   3.0731  49.1714   H         1 RES1   0.0000
    43 H14     17.0795   1.9812  49.8110   H         1 RES1   0.0000
    44 H15     17.2063   0.4584  50.7413   H         1 RES1   0.0000
    45 H16     17.5067   0.4513  48.9765   H         1 RES1   0.0000
    46 H17     27.3842   5.0677  49.5746   H         1 RES1   0.0000
    47 H18     28.6695   2.0191  52.6401   H         1 RES1   0.0000
    48 H19     27.4790  -0.5525  51.2602   H         1 RES1   0.0000
    49 H20     26.6792  -2.6541  52.2848   H         1 RES1   0.0000
    50 H21     25.9446  -2.6819  54.6544   H         1 RES1   0.0000
    51 H22     26.7423   1.5191  54.9600   H         1 RES1   0.0000
    52 H23     25.1230  -0.6029  58.4536   H         1 RES1   0.0000
    53 ****    21.6245  -1.7875  53.2192   Du        1 RES1  17.8110
    54 ****    20.9793  -2.1541  54.6739   Du        1 RES1  14.8180
    55 ****    21.9063   0.3119  52.6182   Du        1 RES1  17.8980
    56 ****    22.8324  -0.7931  51.8513   Du        1 RES1  17.8140
    57 ****    20.9905   1.9362  51.1148   Du        1 RES1  15.1200
    58 ****    21.4482   0.4627  50.5799   Du        1 RES1  15.4520
    59 ****    19.1009   1.8193  50.9991   Du        1 RES1  13.9340
    60 ****    19.4875   0.4052  50.2796   Du        1 RES1  14.6860
    61 ****    25.1571   4.4460  49.0106   Du        1 RES1  17.7480
    62 ****    28.4656   3.8085  51.2770   Du        1 RES1   0.0000
@<TRIPOS>BOND
     1     1     2    1
     2     2     3    1
     3     3     4    1
     4     4     5    1
     5     5     6    1
     6     6     7   ar
     7     7     8   ar
     8     8     9   ar
     9     9    10   ar
    10    10    11   ar
    11     6    11   ar
    12    11    12    1
    13    12    13    1
    14    13    14    1
    15    14    15    1
    16    15    16    1
    17     9    17   ar
    18    17    18   ar
    19    18    19   ar
    20    19    20   ar
    21     8    20   ar
    22    20    21    1
    23    21    22    1
    24    22    23   ar
    25    23    24   ar
    26    24    25   ar
    27    25    26   ar
    28    26    27   ar
    29    22    27   ar
    30    26    28    1
    31    28    29    3
    32     1    30    1
    33     1    31    1
    34     1    32    1
    35     3    33    1
    36     3    34    1
    37     4    35    1
    38     4    36    1
    39     7    37    1
    40    10    38    1
    41    13    39    1
    42    13    40    1
    43    14    41    1
    44    14    42    1
    45    16    43    1
    46    16    44    1
    47    16    45    1
    48    18    46    1
    49    21    47    1
    50    23    48    1
    51    24    49    1
    52    25    50    1
    53    27    51    1
    54    29    52    1
    55     2    53    1
    56     2    54    1
    57     5    55    1
    58     5    56    1
    59    12    57    1
    60    12    58    1
    61    15    59    1
    62    15    60    1
    63    17    61    1
    64    19    62    1
@<TRIPOS>SUBSTRUCTURE
     1 RES1        1 GROUP             0 ****  ****    0  
@<TRIPOS>MOLECULE
8.16474984242
    62    64     1     0     0
SMALL
USER_CHARGES
****
Generated from the CSD

@<TRIPOS>ATOM
     1 C       20.5839  -1.3445  54.1508   C.3       1 RES1  17.7370
     2 O       21.5541  -1.3397  55.2068   O.3       1 RES1  12.8390
     3 C       22.8311  -1.8050  54.7469   C.3       1 RES1  17.0840
     4 C       23.5861  -0.6185  54.1176   C.3       1 RES1  17.9010
     5 O       23.0020  -0.3324  52.8389   O.3       1 RES1  17.9010
     6 C       23.6007   0.7300  52.1637   C.ar      1 RES1  17.9010
     7 C       24.9160   1.1046  52.4471   C.ar      1 RES1  17.9010
     8 C       25.5559   2.0693  51.6646   C.ar      1 RES1  17.9010
     9 C       24.8156   2.7757  50.7159   C.ar      1 RES1  17.7480
    10 C       23.4734   2.4672  50.4926   C.ar      1 RES1  16.9310
    11 C       22.8699   1.4242  51.1988   C.ar      1 RES1  16.9880
    12 O       21.5403   1.0732  50.9634   O.3       1 RES1  16.8840
    13 C       20.7856   1.9720  50.1368   C.3       1 RES1  15.1200
    14 C       19.8540   2.8600  50.9875   C.3       1 RES1  11.4150
    15 O       19.3759   3.9455  50.1799   O.3       1 RES1   0.0000
    16 C       18.2540   4.5954  50.7945   C.3       1 RES1   0.0000
    17 N       25.3963   3.7671  50.0140   N.ar      1 RES1  17.3650
    18 C       26.6728   4.1204  50.2571   C.ar      1 RES1  15.8720
    19 N       27.4179   3.4411  51.1501   N.ar      1 RES1   6.8370
    20 C       26.9146   2.3727  51.7973   C.ar      1 RES1  14.3430
    21 N       27.7530   1.6345  52.5605   N.pl3     1 RES1   0.0000
    22 C       27.3500   0.5016  53.1837   C.ar      1 RES1  17.3610
    23 C       27.4393  -0.7207  52.5131   C.ar      1 RES1  17.3610
    24 C       27.0663  -1.9052  53.1499   C.ar      1 RES1  17.4380
    25 C       26.5897  -1.8725  54.4605   C.ar      1 RES1  17.1680
    26 C       26.4687  -0.6510  55.1235   C.ar      1 RES1  17.9010
    27 C       26.8406   0.5334  54.4854   C.ar      1 RES1  17.9010
    28 C       25.9543  -0.6140  56.4680   C.1       1 RES1  16.9270
    29 C       25.5227  -0.5865  57.5914   C.1       1 RES1  15.8420
    30 H1      20.4436  -2.3641  53.7617   H         1 RES1   0.0000
    31 H2      20.9022  -0.6798  53.3335   H         1 RES1   0.0000
    32 H3      19.6271  -0.9812  54.5538   H         1 RES1   0.0000
    33 H4      23.4195  -2.1985  55.5897   H         1 RES1   0.0000
    34 H5      22.7037  -2.5927  53.9885   H         1 RES1   0.0000
    35 H6      23.5219   0.2424  54.7987   H         1 RES1   0.0000
    36 H7      24.6415  -0.8974  53.9837   H         1 RES1   0.0000
    37 H8      25.4316   0.6515  53.2835   H         1 RES1   0.0000
    38 H9      22.9108   3.0493  49.7729   H         1 RES1   0.0000
    39 H10     20.1964   1.4304  49.3833   H         1 RES1   0.0000
    40 H11     21.5010   2.6241  49.6137   H         1 RES1   0.0000
    41 H12     20.4000   3.2454  51.8621   H         1 RES1   0.0000
    42 H13     19.0088   2.2444  51.3317   H         1 RES1   0.0000
    43 H14     17.4142   3.8923  50.8989   H         1 RES1   0.0000
    44 H15     17.9370   5.4345  50.1582   H         1 RES1   0.0000
    45 H16     18.5297   4.9825  51.7859   H         1 RES1   0.0000
    46 H17     27.1062   4.9606  49.7268   H         1 RES1   0.0000
    47 H18     28.7411   1.9189  52.6249   H         1 RES1   0.0000
    48 H19     27.8047  -0.7558  51.4928   H         1 RES1   0.0000
    49 H20     27.1476  -2.8512  52.6260   H         1 RES1   0.0000
    50 H21     26.3122  -2.7933  54.9614   H         1 RES1   0.0000
    51 H22     26.7222   1.4738  55.0114   H         1 RES1   0.0000
    52 H23     25.1440  -0.5628  58.5768   H         1 RES1   0.0000
    53 ****    21.2363  -1.9369  55.9433   Du        1 RES1   4.3740
    54 ****    21.6533  -0.4070  55.5534   Du        1 RES1  13.7230
    55 ****    22.0363  -0.1122  52.9771   Du        1 RES1  17.8980
    56 ****    23.0790  -1.1501  52.2685   Du        1 RES1  17.9010
    57 ****    21.0792   1.0126  51.8487   Du        1 RES1  16.9810
    58 ****    21.5349   0.1756  50.5226   Du        1 RES1  15.4520
    59 ****    19.0981   3.5902  49.2874   Du        1 RES1   0.0000
    60 ****    20.1123   4.6111  50.0592   Du        1 RES1   0.0000
    61 ****    24.8755   4.2449  49.3066   Du        1 RES1  17.7480
    62 ****    28.3561   3.7337  51.3348   Du        1 RES1   2.2360
@<TRIPOS>BOND
     1     1     2    1
     2     2     3    1
     3     3     4    1
     4     4     5    1
     5     5     6    1
     6     6     7   ar
     7     7     8   ar
     8     8     9   ar
     9     9    10   ar
    10    10    11   ar
    11     6    11   ar
    12    11    12    1
    13    12    13    1
    14    13    14    1
    15    14    15    1
    16    15    16    1
    17     9    17   ar
    18    17    18   ar
    19    18    19   ar
    20    19    20   ar
    21     8    20   ar
    22    20    21    1
    23    21    22    1
    24    22    23   ar
    25    23    24   ar
    26    24    25   ar
    27    25    26   ar
    28    26    27   ar
    29    22    27   ar
    30    26    28    1
    31    28    29    3
    32     1    30    1
    33     1    31    1
    34     1    32    1
    35     3    33    1
    36     3    34    1
    37     4    35    1
    38     4    36    1
    39     7    37    1
    40    10    38    1
    41    13    39    1
    42    13    40    1
    43    14    41    1
    44    14    42    1
    45    16    43    1
    46    16    44    1
    47    16    45    1
    48    18    46    1
    49    21    47    1
    50    23    48    1
    51    24    49    1
    52    25    50    1
    53    27    51    1
    54    29    52    1
    55     2    53    1
    56     2    54    1
    57     5    55    1
    58     5    56    1
    59    12    57    1
    60    12    58    1
    61    15    59    1
    62    15    60    1
    63    17    61    1
    64    19    62    1
@<TRIPOS>SUBSTRUCTURE
     1 RES1        1 GROUP             0 ****  ****    0  
@<TRIPOS>MOLECULE
8.09832681142
    62    64     1     0     0
SMALL
USER_CHARGES
****
Generated from the CSD

@<TRIPOS>ATOM
     1 C       21.0277  -0.9724  54.6330   C.3       1 RES1  17.8750
     2 O       21.7862  -1.9380  55.3738   O.3       1 RES1  10.1610
     3 C       23.0586  -1.4093  55.7740   C.3       1 RES1  13.3280
     4 C       23.9329  -1.2351  54.5175   C.3       1 RES1  17.9010
     5 O       25.1777  -0.6375  54.9069   O.3       1 RES1  17.9010
     6 C       25.7036   0.2475  53.9672   C.ar      1 RES1  17.9010
     7 C       24.8655   0.9279  53.0810   C.ar      1 RES1  17.9010
     8 C       25.3840   1.9211  52.2460   C.ar      1 RES1  17.9010
     9 C       26.7660   2.1020  52.1814   C.ar      1 RES1  17.3610
    10 C       27.6163   1.3581  53.0001   C.ar      1 RES1  17.3710
    11 C       27.0837   0.4469  53.9149   C.ar      1 RES1  17.9010
    12 O       27.9131  -0.2789  54.7704   O.3       1 RES1  17.1950
    13 C       29.3124   0.0358  54.7125   C.3       1 RES1  17.6430
    14 C       29.9780  -0.6147  53.4819   C.3       1 RES1  17.6430
    15 O       29.8890  -2.0419  53.6013   O.3       1 RES1  17.6430
    16 C       28.5975  -2.5176  53.1959   C.3       1 RES1  17.3970
    17 N       27.2862   2.9954  51.3189   N.ar      1 RES1   7.6150
    18 C       26.4874   3.6793  50.4778   C.ar      1 RES1  16.4580
    19 N       25.1488   3.5421  50.5341   N.ar      1 RES1  17.7480
    20 C       24.5756   2.7427  51.4539   C.ar      1 RES1  17.9010
    21 N       23.2278   2.7650  51.5694   N.pl3     1 RES1   0.0000
    22 C       22.4123   2.3691  50.5632   C.ar      1 RES1  16.1550
    23 C       21.4226   1.4160  50.8152   C.ar      1 RES1  16.5330
    24 C       20.5461   1.0224  49.8030   C.ar      1 RES1  14.8450
    25 C       20.6624   1.5728  48.5265   C.ar      1 RES1  13.5270
    26 C       21.6691   2.5014  48.2614   C.ar      1 RES1  14.3900
    27 C       22.5463   2.8935  49.2739   C.ar      1 RES1  14.9180
    28 C       21.8048   3.0521  46.9377   C.1       1 RES1   0.0000
    29 C       21.9211   3.5147  45.8326   C.1       1 RES1   0.0000
    30 H1      21.5660  -0.6791  53.7193   H         1 RES1   0.0000
    31 H2      20.8355  -0.0806  55.2485   H         1 RES1   0.0000
    32 H3      20.0658  -1.4253  54.3512   H         1 RES1   0.0000
    33 H4      22.9287  -0.4300  56.2595   H         1 RES1   0.0000
    34 H5      23.5613  -2.0996  56.4687   H         1 RES1   0.0000
    35 H6      24.0801  -2.2196  54.0503   H         1 RES1   0.0000
    36 H7      23.4138  -0.5718  53.8103   H         1 RES1   0.0000
    37 H8      23.8151   0.6725  53.0372   H         1 RES1   0.0000
    38 H9      28.6872   1.4939  52.9107   H         1 RES1   0.0000
    39 H10     29.8358  -0.2775  55.6269   H         1 RES1   0.0000
    40 H11     29.4049   1.1282  54.6177   H         1 RES1   0.0000
    41 H12     31.0310  -0.3011  53.4164   H         1 RES1   0.0000
    42 H13     29.4436  -0.2769  52.5808   H         1 RES1   0.0000
    43 H14     27.8145  -2.1018  53.8474   H         1 RES1   0.0000
    44 H15     28.5812  -3.6142  53.2771   H         1 RES1   0.0000
    45 H16     28.3928  -2.2331  52.1538   H         1 RES1   0.0000
    46 H17     26.9269   4.3492  49.7477   H         1 RES1   0.0000
    47 H18     22.8145   3.0438  52.4709   H         1 RES1   0.0000
    48 H19     21.3269   0.9795  51.8032   H         1 RES1   0.0000
    49 H20     19.7742   0.2891  50.0090   H         1 RES1   0.0000
    50 H21     19.9737   1.2781  47.7425   H         1 RES1   0.0000
    51 H22     23.3328   3.6027  49.0431   H         1 RES1   0.0000
    52 H23     22.0234   3.9207  44.8632   H         1 RES1   0.0000
    53 ****    21.9345  -2.7441  54.8010   Du        1 RES1   9.6970
    54 ****    21.2712  -2.1994  56.1902   Du        1 RES1   6.3820
    55 ****    25.8435  -1.3684  55.0569   Du        1 RES1  17.7340
    56 ****    25.0326  -0.1384  55.7613   Du        1 RES1  17.0870
    57 ****    27.8086  -1.2481  54.5474   Du        1 RES1  17.2370
    58 ****    27.6023  -0.1170  55.7070   Du        1 RES1  17.3080
    59 ****    30.0471  -2.2999  54.5544   Du        1 RES1  17.0980
    60 ****    30.5877  -2.4617  53.0221   Du        1 RES1  15.2760
    61 ****    28.2737   3.1522  51.3027   Du        1 RES1   4.6370
    62 ****    24.5735   4.0399  49.8851   Du        1 RES1  17.6550
@<TRIPOS>BOND
     1     1     2    1
     2     2     3    1
     3     3     4    1
     4     4     5    1
     5     5     6    1
     6     6     7   ar
     7     7     8   ar
     8     8     9   ar
     9     9    10   ar
    10    10    11   ar
    11     6    11   ar
    12    11    12    1
    13    12    13    1
    14    13    14    1
    15    14    15    1
    16    15    16    1
    17     9    17   ar
    18    17    18   ar
    19    18    19   ar
    20    19    20   ar
    21     8    20   ar
    22    20    21    1
    23    21    22    1
    24    22    23   ar
    25    23    24   ar
    26    24    25   ar
    27    25    26   ar
    28    26    27   ar
    29    22    27   ar
    30    26    28    1
    31    28    29    3
    32     1    30    1
    33     1    31    1
    34     1    32    1
    35     3    33    1
    36     3    34    1
    37     4    35    1
    38     4    36    1
    39     7    37    1
    40    10    38    1
    41    13    39    1
    42    13    40    1
    43    14    41    1
    44    14    42    1
    45    16    43    1
    46    16    44    1
    47    16    45    1
    48    18    46    1
    49    21    47    1
    50    23    48    1
    51    24    49    1
    52    25    50    1
    53    27    51    1
    54    29    52    1
    55     2    53    1
    56     2    54    1
    57     5    55    1
    58     5    56    1
    59    12    57    1
    60    12    58    1
    61    15    59    1
    62    15    60    1
    63    17    61    1
    64    19    62    1
@<TRIPOS>SUBSTRUCTURE
     1 RES1        1 GROUP             0 ****  ****    0  
@<TRIPOS>MOLECULE
8.06671142578
    62    64     1     0     0
SMALL
USER_CHARGES
****
Generated from the CSD

@<TRIPOS>ATOM
     1 C       21.3487  -1.0559  54.2341   C.3       1 RES1  17.8960
     2 O       21.7548  -1.7066  55.4458   O.3       1 RES1  11.4930
     3 C       23.1772  -1.8892  55.4908   C.3       1 RES1  13.6070
     4 C       23.8532  -0.5275  55.2403   C.3       1 RES1  17.9010
     5 O       25.2322  -0.7553  54.9169   O.3       1 RES1  17.8810
     6 C       25.7576   0.1472  53.9937   C.ar      1 RES1  17.9010
     7 C       24.9241   0.8086  53.0890   C.ar      1 RES1  17.9010
     8 C       25.4365   1.8187  52.2708   C.ar      1 RES1  17.9010
     9 C       26.8144   2.0368  52.2416   C.ar      1 RES1  17.3610
    10 C       27.6635   1.3126  53.0790   C.ar      1 RES1  17.3710
    11 C       27.1328   0.3837  53.9769   C.ar      1 RES1  17.9010
    12 O       27.9596  -0.3231  54.8506   O.3       1 RES1  17.1950
    13 C       29.3633  -0.2996  54.5513   C.3       1 RES1  17.6430
    14 C       29.6831  -1.1677  53.3167   C.3       1 RES1  17.6430
    15 O       29.0801  -2.4591  53.4835   O.3       1 RES1  17.6430
    16 C       27.7706  -2.5004  52.8986   C.3       1 RES1  16.7580
    17 N       27.3319   2.9472  51.3955   N.ar      1 RES1   7.6150
    18 C       26.5363   3.6130  50.5369   C.ar      1 RES1  16.4580
    19 N       25.2009   3.4398  50.5590   N.ar      1 RES1  17.7480
    20 C       24.6265   2.6216  51.4613   C.ar      1 RES1  17.9010
    21 N       23.2761   2.6073  51.5429   N.pl3     1 RES1   0.0000
    22 C       22.4950   2.2577  50.4932   C.ar      1 RES1  16.1550
    23 C       21.5408   1.2499  50.6521   C.ar      1 RES1  15.4520
    24 C       20.6989   0.9005  49.5953   C.ar      1 RES1  14.5400
    25 C       20.8147   1.5511  48.3668   C.ar      1 RES1  13.5270
    26 C       21.7871   2.5362  48.1933   C.ar      1 RES1  13.1590
    27 C       22.6298   2.8839  49.2503   C.ar      1 RES1  14.9180
    28 C       21.9231   3.1914  46.9181   C.1       1 RES1   0.0000
    29 C       22.0338   3.7412  45.8531   C.1       1 RES1   0.0000
    30 H1      21.6323  -1.6599  53.3592   H         1 RES1   0.0000
    31 H2      21.8115  -0.0603  54.1588   H         1 RES1   0.0000
    32 H3      20.2549  -0.9404  54.2491   H         1 RES1   0.0000
    33 H4      23.4821  -2.2648  56.4794   H         1 RES1   0.0000
    34 H5      23.4993  -2.5986  54.7132   H         1 RES1   0.0000
    35 H6      23.3216  -0.0135  54.4265   H         1 RES1   0.0000
    36 H7      23.7872   0.0778  56.1562   H         1 RES1   0.0000
    37 H8      23.8823   0.5253  53.0179   H         1 RES1   0.0000
    38 H9      28.7322   1.4773  53.0171   H         1 RES1   0.0000
    39 H10     29.9652  -0.6354  55.4076   H         1 RES1   0.0000
    40 H11     29.6380   0.7410  54.3221   H         1 RES1   0.0000
    41 H12     30.7732  -1.2666  53.2008   H         1 RES1   0.0000
    42 H13     29.2688  -0.6694  52.4269   H         1 RES1   0.0000
    43 H14     27.1054  -1.7800  53.3976   H         1 RES1   0.0000
    44 H15     27.3568  -3.5115  53.0248   H         1 RES1   0.0000
    45 H16     27.8213  -2.2661  51.8257   H         1 RES1   0.0000
    46 H17     26.9759   4.2974  49.8204   H         1 RES1   0.0000
    47 H18     22.8343   2.8201  52.4489   H         1 RES1   0.0000
    48 H19     21.4459   0.7356  51.6020   H         1 RES1   0.0000
    49 H20     19.9542   0.1237  49.7294   H         1 RES1   0.0000
    50 H21     20.1524   1.2902  47.5487   H         1 RES1   0.0000
    51 H22     23.3906   3.6392  49.0899   H         1 RES1   0.0000
    52 H23     22.1306   4.2239  44.9189   H         1 RES1   0.0000
    53 ****    21.3102  -2.6007  55.4996   Du        1 RES1   7.8090
    54 ****    21.4738  -1.1471  56.2255   Du        1 RES1   7.2830
    55 ****    25.3178  -1.6770  54.5385   Du        1 RES1  17.7850
    56 ****    25.7672  -0.6899  55.7593   Du        1 RES1  17.1830
    57 ****    27.6625  -1.2779  54.8468   Du        1 RES1  14.6900
    58 ****    27.8360   0.0608  55.7657   Du        1 RES1  16.9990
    59 ****    29.0075  -2.6614  54.4602   Du        1 RES1  14.8220
    60 ****    29.6561  -3.1474  53.0425   Du        1 RES1  17.0050
    61 ****    28.3149   3.1306  51.4048   Du        1 RES1   4.6370
    62 ****    24.6289   3.9247  49.8974   Du        1 RES1  17.6550
@<TRIPOS>BOND
     1     1     2    1
     2     2     3    1
     3     3     4    1
     4     4     5    1
     5     5     6    1
     6     6     7   ar
     7     7     8   ar
     8     8     9   ar
     9     9    10   ar
    10    10    11   ar
    11     6    11   ar
    12    11    12    1
    13    12    13    1
    14    13    14    1
    15    14    15    1
    16    15    16    1
    17     9    17   ar
    18    17    18   ar
    19    18    19   ar
    20    19    20   ar
    21     8    20   ar
    22    20    21    1
    23    21    22    1
    24    22    23   ar
    25    23    24   ar
    26    24    25   ar
    27    25    26   ar
    28    26    27   ar
    29    22    27   ar
    30    26    28    1
    31    28    29    3
    32     1    30    1
    33     1    31    1
    34     1    32    1
    35     3    33    1
    36     3    34    1
    37     4    35    1
    38     4    36    1
    39     7    37    1
    40    10    38    1
    41    13    39    1
    42    13    40    1
    43    14    41    1
    44    14    42    1
    45    16    43    1
    46    16    44    1
    47    16    45    1
    48    18    46    1
    49    21    47    1
    50    23    48    1
    51    24    49    1
    52    25    50    1
    53    27    51    1
    54    29    52    1
    55     2    53    1
    56     2    54    1
    57     5    55    1
    58     5    56    1
    59    12    57    1
    60    12    58    1
    61    15    59    1
    62    15    60    1
    63    17    61    1
    64    19    62    1
@<TRIPOS>SUBSTRUCTURE
     1 RES1        1 GROUP             0 ****  ****    0  
@<TRIPOS>MOLECULE
8.01636521633
    62    64     1     0     0
SMALL
USER_CHARGES
****
Generated from the CSD

@<TRIPOS>ATOM
     1 C       20.6847  -0.7601  54.1939   C.3       1 RES1  17.8930
     2 O       21.9455  -1.3054  54.6059   O.3       1 RES1  17.3870
     3 C       22.9871  -0.9773  53.6754   C.3       1 RES1  17.9010
     4 C       23.1964   0.5490  53.6937   C.3       1 RES1  17.9010
     5 O       22.5465   1.1125  52.5455   O.3       1 RES1  17.9010
     6 C       23.3722   1.9150  51.7599   C.ar      1 RES1  17.9010
     7 C       24.7362   2.0240  52.0395   C.ar      1 RES1  17.9010
     8 C       25.5807   2.7086  51.1617   C.ar      1 RES1  17.9010
     9 C       25.0234   3.4267  50.1030   C.ar      1 RES1  17.7480
    10 C       23.6475   3.3957  49.8735   C.ar      1 RES1  16.2840
    11 C       22.8214   2.6170  50.6871   C.ar      1 RES1  16.9310
    12 O       21.4484   2.5405  50.4515   O.3       1 RES1  14.6220
    13 C       20.9642   3.2445  49.2980   C.3       1 RES1  11.4280
    14 C       19.8416   2.4537  48.5948   C.3       1 RES1   0.0000
    15 O       18.8403   2.1026  49.5608   O.3       1 RES1   0.0000
    16 C       17.9884   3.2189  49.8551   C.3       1 RES1   0.0000
    17 N       25.8157   4.1611  49.2996   N.ar      1 RES1  17.2670
    18 C       27.1374   4.2528  49.5406   C.ar      1 RES1  16.1640
    19 N       27.7059   3.5523  50.5406   N.ar      1 RES1   8.4610
    20 C       26.9721   2.7190  51.3028   C.ar      1 RES1  14.3430
    21 N       27.6190   1.9235  52.1853   N.pl3     1 RES1   0.0000
    22 C       27.0523   0.8042  52.6955   C.ar      1 RES1  17.6290
    23 C       26.9091  -0.3245  51.8849   C.ar      1 RES1  17.6340
    24 C       26.3637  -1.5009  52.4010   C.ar      1 RES1  17.8990
    25 C       25.9467  -1.5515  53.7312   C.ar      1 RES1  17.9010
    26 C       26.0583  -0.4175  54.5360   C.ar      1 RES1  17.9010
    27 C       26.6025   0.7591  54.0187   C.ar      1 RES1  17.9010
    28 C       25.6059  -0.4619  55.9024   C.1       1 RES1  17.1530
    29 C       25.2270  -0.5028  57.0442   C.1       1 RES1  16.8990
    30 H1      20.3920  -1.1654  53.2137   H         1 RES1   0.0000
    31 H2      20.7413   0.3374  54.1356   H         1 RES1   0.0000
    32 H3      19.9237  -1.0389  54.9375   H         1 RES1   0.0000
    33 H4      23.9267  -1.4720  53.9652   H         1 RES1   0.0000
    34 H5      22.7068  -1.2894  52.6576   H         1 RES1   0.0000
    35 H6      22.7887   0.9503  54.6327   H         1 RES1   0.0000
    36 H7      24.2743   0.7623  53.6455   H         1 RES1   0.0000
    37 H8      25.1320   1.5852  52.9458   H         1 RES1   0.0000
    38 H9      23.2341   3.9853  49.0643   H         1 RES1   0.0000
    39 H10     21.7729   3.4560  48.5842   H         1 RES1   0.0000
    40 H11     20.5475   4.2027  49.6429   H         1 RES1   0.0000
    41 H12     20.2576   1.5477  48.1283   H         1 RES1   0.0000
    42 H13     19.4046   3.0942  47.8134   H         1 RES1   0.0000
    43 H14     18.5722   4.0401  50.2970   H         1 RES1   0.0000
    44 H15     17.2219   2.9004  50.5766   H         1 RES1   0.0000
    45 H16     17.4928   3.5758  48.9409   H         1 RES1   0.0000
    46 H17     27.7513   4.8968  48.9214   H         1 RES1   0.0000
    47 H18     28.5921   2.1523  52.4346   H         1 RES1   0.0000
    48 H19     27.2266  -0.2936  50.8485   H         1 RES1   0.0000
    49 H20     26.2647  -2.3758  51.7680   H         1 RES1   0.0000
    50 H21     25.5351  -2.4688  54.1375   H         1 RES1   0.0000
    51 H22     26.6641   1.6344  54.6550   H         1 RES1   0.0000
    52 H23     24.8946  -0.5391  58.0458   H         1 RES1   0.0000
    53 ****    21.8652  -2.3003  54.6670   Du        1 RES1  14.6510
    54 ****    22.1826  -0.9343  55.5037   Du        1 RES1  11.9180
    55 ****    21.7772   1.6679  52.8613   Du        1 RES1  17.3170
    56 ****    22.2056   0.3627  51.9783   Du        1 RES1  17.8980
    57 ****    20.9799   2.9103  51.2539   Du        1 RES1  15.1470
    58 ****    21.2107   1.5753  50.3422   Du        1 RES1  15.3110
    59 ****    19.2899   1.8046  50.4029   Du        1 RES1  12.7740
    60 ****    18.2844   1.3551  49.1973   Du        1 RES1   0.0000
    61 ****    25.4195   4.6424  48.5177   Du        1 RES1  17.7480
    62 ****    28.6847   3.6522  50.7194   Du        1 RES1   1.2320
@<TRIPOS>BOND
     1     1     2    1
     2     2     3    1
     3     3     4    1
     4     4     5    1
     5     5     6    1
     6     6     7   ar
     7     7     8   ar
     8     8     9   ar
     9     9    10   ar
    10    10    11   ar
    11     6    11   ar
    12    11    12    1
    13    12    13    1
    14    13    14    1
    15    14    15    1
    16    15    16    1
    17     9    17   ar
    18    17    18   ar
    19    18    19   ar
    20    19    20   ar
    21     8    20   ar
    22    20    21    1
    23    21    22    1
    24    22    23   ar
    25    23    24   ar
    26    24    25   ar
    27    25    26   ar
    28    26    27   ar
    29    22    27   ar
    30    26    28    1
    31    28    29    3
    32     1    30    1
    33     1    31    1
    34     1    32    1
    35     3    33    1
    36     3    34    1
    37     4    35    1
    38     4    36    1
    39     7    37    1
    40    10    38    1
    41    13    39    1
    42    13    40    1
    43    14    41    1
    44    14    42    1
    45    16    43    1
    46    16    44    1
    47    16    45    1
    48    18    46    1
    49    21    47    1
    50    23    48    1
    51    24    49    1
    52    25    50    1
    53    27    51    1
    54    29    52    1
    55     2    53    1
    56     2    54    1
    57     5    55    1
    58     5    56    1
    59    12    57    1
    60    12    58    1
    61    15    59    1
    62    15    60    1
    63    17    61    1
    64    19    62    1
@<TRIPOS>SUBSTRUCTURE
     1 RES1        1 GROUP             0 ****  ****    0  
@<TRIPOS>MOLECULE
7.86974978447
    62    64     1     0     0
SMALL
USER_CHARGES
****
Generated from the CSD

@<TRIPOS>ATOM
     1 C       20.8787  -1.6548  54.4096   C.3       1 RES1  15.8640
     2 O       22.0402  -2.0898  55.1296   O.3       1 RES1  12.5940
     3 C       22.9651  -1.0118  55.3319   C.3       1 RES1  15.7230
     4 C       24.1451  -1.1904  54.3575   C.3       1 RES1  17.9010
     5 O       25.2366  -0.3759  54.8086   O.3       1 RES1  17.9010
     6 C       25.7136   0.5184  53.8517   C.ar      1 RES1  17.9010
     7 C       24.9282   0.8729  52.7525   C.ar      1 RES1  17.9010
     8 C       25.3525   1.8796  51.8814   C.ar      1 RES1  17.9010
     9 C       26.6398   2.4002  52.0191   C.ar      1 RES1  17.9010
    10 C       27.4646   1.9811  53.0635   C.ar      1 RES1  17.3710
    11 C       26.9923   1.0575  53.9986   C.ar      1 RES1  17.9010
    12 O       27.7859   0.6541  55.0728   O.3       1 RES1  17.1950
    13 C       29.2052   0.6991  54.8627   C.3       1 RES1  17.3100
    14 C       29.6314  -0.2654  53.7366   C.3       1 RES1  17.6430
    15 O       29.2505  -1.6016  54.0955   O.3       1 RES1  17.6430
    16 C       28.9218  -2.3777  52.9343   C.3       1 RES1  17.6430
    17 N       27.0943   3.3086  51.1355   N.ar      1 RES1  11.7250
    18 C       26.3368   3.6809  50.0863   C.ar      1 RES1  17.7480
    19 N       25.0823   3.2127  49.9413   N.ar      1 RES1  17.7480
    20 C       24.5442   2.3867  50.8588   C.ar      1 RES1  17.9010
    21 N       23.2324   2.0753  50.7474   N.pl3     1 RES1  17.5530
    22 C       22.3794   2.8099  49.9945   C.ar      1 RES1  15.5130
    23 C       21.3797   3.5581  50.6208   C.ar      1 RES1  13.6810
    24 C       20.5145   4.3528  49.8673   C.ar      1 RES1   8.3990
    25 C       20.6374   4.3947  48.4785   C.ar      1 RES1   0.0000
    26 C       21.6136   3.6248  47.8457   C.ar      1 RES1   0.0000
    27 C       22.4775   2.8291  48.5999   C.ar      1 RES1  14.6660
    28 C       21.7255   3.6491  46.4101   C.1       1 RES1   0.0000
    29 C       21.8162   3.6667  45.2100   C.1       1 RES1   0.0000
    30 H1      21.1619  -1.2716  53.4178   H         1 RES1   0.0000
    31 H2      20.3512  -0.8684  54.9704   H         1 RES1   0.0000
    32 H3      20.2047  -2.5145  54.2814   H         1 RES1   0.0000
    33 H4      22.4758  -0.0468  55.1299   H         1 RES1   0.0000
    34 H5      23.3471  -1.0206  56.3643   H         1 RES1   0.0000
    35 H6      24.4164  -2.2554  54.3227   H         1 RES1   0.0000
    36 H7      23.8334  -0.8624  53.3552   H         1 RES1   0.0000
    37 H8      23.9953   0.3548  52.5738   H         1 RES1   0.0000
    38 H9      28.4707   2.3765  53.1325   H         1 RES1   0.0000
    39 H10     29.7581   0.4631  55.7830   H         1 RES1   0.0000
    40 H11     29.4646   1.7236  54.5562   H         1 RES1   0.0000
    41 H12     30.7198  -0.2057  53.5844   H         1 RES1   0.0000
    42 H13     29.1198   0.0372  52.8100   H         1 RES1   0.0000
    43 H14     28.0591  -1.9384  52.4117   H         1 RES1   0.0000
    44 H15     28.6625  -3.3985  53.2510   H         1 RES1   0.0000
    45 H16     29.7789  -2.4233  52.2472   H         1 RES1   0.0000
    46 H17     26.7409   4.3667  49.3505   H         1 RES1   0.0000
    47 H18     22.8868   1.2222  51.2102   H         1 RES1   0.0000
    48 H19     21.2737   3.5290  51.6996   H         1 RES1   0.0000
    49 H20     19.7472   4.9383  50.3617   H         1 RES1   0.0000
    50 H21     19.9747   5.0220  47.8926   H         1 RES1   0.0000
    51 H22     23.2176   2.2248  48.0880   H         1 RES1   0.0000
    52 H23     21.8955   3.6820  44.1571   H         1 RES1   0.0000
    53 ****    22.4931  -2.8138  54.6094   Du        1 RES1   9.1040
    54 ****    21.7565  -2.4465  56.0197   Du        1 RES1   6.5810
    55 ****    25.9880  -0.9786  55.0771   Du        1 RES1  17.7340
    56 ****    24.9297   0.1484  55.6029   Du        1 RES1  17.9010
    57 ****    27.5402  -0.2890  55.2968   Du        1 RES1  17.1540
    58 ****    27.5732   1.2474  55.8492   Du        1 RES1  17.1300
    59 ****    28.4534  -1.5627  54.6980   Du        1 RES1  17.2370
    60 ****    30.0104  -2.0393  54.5759   Du        1 RES1  17.2190
    61 ****    28.0018   3.7100  51.2593   Du        1 RES1   5.0320
    62 ****    24.5439   3.4816  49.1427   Du        1 RES1  17.7480
@<TRIPOS>BOND
     1     1     2    1
     2     2     3    1
     3     3     4    1
     4     4     5    1
     5     5     6    1
     6     6     7   ar
     7     7     8   ar
     8     8     9   ar
     9     9    10   ar
    10    10    11   ar
    11     6    11   ar
    12    11    12    1
    13    12    13    1
    14    13    14    1
    15    14    15    1
    16    15    16    1
    17     9    17   ar
    18    17    18   ar
    19    18    19   ar
    20    19    20   ar
    21     8    20   ar
    22    20    21    1
    23    21    22    1
    24    22    23   ar
    25    23    24   ar
    26    24    25   ar
    27    25    26   ar
    28    26    27   ar
    29    22    27   ar
    30    26    28    1
    31    28    29    3
    32     1    30    1
    33     1    31    1
    34     1    32    1
    35     3    33    1
    36     3    34    1
    37     4    35    1
    38     4    36    1
    39     7    37    1
    40    10    38    1
    41    13    39    1
    42    13    40    1
    43    14    41    1
    44    14    42    1
    45    16    43    1
    46    16    44    1
    47    16    45    1
    48    18    46    1
    49    21    47    1
    50    23    48    1
    51    24    49    1
    52    25    50    1
    53    27    51    1
    54    29    52    1
    55     2    53    1
    56     2    54    1
    57     5    55    1
    58     5    56    1
    59    12    57    1
    60    12    58    1
    61    15    59    1
    62    15    60    1
    63    17    61    1
    64    19    62    1
@<TRIPOS>SUBSTRUCTURE
     1 RES1        1 GROUP             0 ****  ****    0  
@<TRIPOS>MOLECULE
7.86313443917
    62    64     1     0     0
SMALL
USER_CHARGES
****
Generated from the CSD

@<TRIPOS>ATOM
     1 C       21.2655  -1.2987  54.6999   C.3       1 RES1  15.8640
     2 O       22.1777  -2.0212  55.5379   O.3       1 RES1  10.1610
     3 C       23.3079  -1.2146  55.8994   C.3       1 RES1  17.5950
     4 C       24.0726  -0.8407  54.6151   C.3       1 RES1  17.9010
     5 O       25.2556  -0.1172  54.9828   O.3       1 RES1  17.9010
     6 C       25.7536   0.7096  53.9771   C.ar      1 RES1  17.9010
     7 C       24.9118   1.2044  52.9785   C.ar      1 RES1  17.9010
     8 C       25.3858   2.1487  52.0642   C.ar      1 RES1  17.9010
     9 C       26.7464   2.4579  52.0497   C.ar      1 RES1  17.9010
    10 C       27.6104   1.8942  52.9892   C.ar      1 RES1  17.3710
    11 C       27.1098   1.0382  53.9727   C.ar      1 RES1  17.9010
    12 O       27.9490   0.4943  54.9455   O.3       1 RES1  17.1950
    13 C       29.3524   0.4971  54.6436   C.3       1 RES1  17.3100
    14 C       29.7231  -0.6763  53.7130   C.3       1 RES1  17.6430
    15 O       28.5189  -1.2974  53.2403   O.3       1 RES1  17.3970
    16 C       28.6993  -2.7092  53.0589   C.3       1 RES1  17.3970
    17 N       27.2332   3.3006  51.1194   N.ar      1 RES1  11.7250
    18 C       26.4273   3.8077  50.1672   C.ar      1 RES1  15.9520
    19 N       25.1063   3.5452  50.1707   N.ar      1 RES1  17.7480
    20 C       24.5547   2.7962  51.1445   C.ar      1 RES1  17.7480
    21 N       23.2061   2.6970  51.1883   N.pl3     1 RES1   0.0000
    22 C       22.4671   2.4366  50.0837   C.ar      1 RES1  15.7050
    23 C       21.5385   1.3933  50.1082   C.ar      1 RES1  15.1470
    24 C       20.7389   1.1323  48.9945   C.ar      1 RES1  13.7930
    25 C       20.8720   1.9082  47.8430   C.ar      1 RES1   0.0000
    26 C       21.8199   2.9309  47.8023   C.ar      1 RES1  13.1590
    27 C       22.6203   3.1903  48.9160   C.ar      1 RES1  14.6660
    28 C       21.9744   3.7168  46.6055   C.1       1 RES1   0.0000
    29 C       22.0999   4.3730  45.6042   C.1       1 RES1   0.0000
    30 H1      21.7620  -0.9888  53.7681   H         1 RES1   0.0000
    31 H2      20.8824  -0.4107  55.2250   H         1 RES1   0.0000
    32 H3      20.4210  -1.9585  54.4524   H         1 RES1   0.0000
    33 H4      22.9738  -0.2927  56.3994   H         1 RES1   0.0000
    34 H5      23.9808  -1.7721  56.5688   H         1 RES1   0.0000
    35 H6      24.3110  -1.7623  54.0649   H         1 RES1   0.0000
    36 H7      23.4314  -0.2010  53.9911   H         1 RES1   0.0000
    37 H8      23.8943   0.8428  52.9106   H         1 RES1   0.0000
    38 H9      28.6675   2.1252  52.9394   H         1 RES1   0.0000
    39 H10     29.9628   0.4541  55.5568   H         1 RES1   0.0000
    40 H11     29.5789   1.4378  54.1198   H         1 RES1   0.0000
    41 H12     30.3412  -1.4057  54.2583   H         1 RES1   0.0000
    42 H13     30.2998  -0.2762  52.8650   H         1 RES1   0.0000
    43 H14     29.4685  -2.9021  52.2964   H         1 RES1   0.0000
    44 H15     27.7487  -3.1486  52.7229   H         1 RES1   0.0000
    45 H16     28.9978  -3.1833  54.0049   H         1 RES1   0.0000
    46 H17     26.8465   4.4356  49.3895   H         1 RES1   0.0000
    47 H18     22.7353   2.7714  52.1016   H         1 RES1   0.0000
    48 H19     21.4306   0.7820  50.9973   H         1 RES1   0.0000
    49 H20     20.0135   0.3267  49.0247   H         1 RES1   0.0000
    50 H21     20.2421   1.7155  46.9816   H         1 RES1   0.0000
    51 H22     23.3630   3.9776  48.8580   H         1 RES1   0.0000
    52 H23     22.2096   4.9487  44.7258   H         1 RES1   0.0000
    53 ****    22.4995  -2.8306  55.0466   Du        1 RES1   6.4510
    54 ****    21.7006  -2.3043  56.3700   Du        1 RES1   0.0000
    55 ****    25.9653  -0.7785  55.2256   Du        1 RES1  17.7340
    56 ****    25.0423   0.4499  55.7784   Du        1 RES1  16.2460
    57 ****    27.6703  -0.4546  55.0933   Du        1 RES1  17.1540
    58 ****    27.8171   1.0156  55.7886   Du        1 RES1  16.9990
    59 ****    28.2618  -0.8865  52.3656   Du        1 RES1  17.2970
    60 ****    27.7898  -1.1449  53.9074   Du        1 RES1  17.2460
    61 ****    28.2009   3.5521  51.1358   Du        1 RES1   4.4920
    62 ****    24.5281   3.9109  49.4414   Du        1 RES1  17.7480
@<TRIPOS>BOND
     1     1     2    1
     2     2     3    1
     3     3     4    1
     4     4     5    1
     5     5     6    1
     6     6     7   ar
     7     7     8   ar
     8     8     9   ar
     9     9    10   ar
    10    10    11   ar
    11     6    11   ar
    12    11    12    1
    13    12    13    1
    14    13    14    1
    15    14    15    1
    16    15    16    1
    17     9    17   ar
    18    17    18   ar
    19    18    19   ar
    20    19    20   ar
    21     8    20   ar
    22    20    21    1
    23    21    22    1
    24    22    23   ar
    25    23    24   ar
    26    24    25   ar
    27    25    26   ar
    28    26    27   ar
    29    22    27   ar
    30    26    28    1
    31    28    29    3
    32     1    30    1
    33     1    31    1
    34     1    32    1
    35     3    33    1
    36     3    34    1
    37     4    35    1
    38     4    36    1
    39     7    37    1
    40    10    38    1
    41    13    39    1
    42    13    40    1
    43    14    41    1
    44    14    42    1
    45    16    43    1
    46    16    44    1
    47    16    45    1
    48    18    46    1
    49    21    47    1
    50    23    48    1
    51    24    49    1
    52    25    50    1
    53    27    51    1
    54    29    52    1
    55     2    53    1
    56     2    54    1
    57     5    55    1
    58     5    56    1
    59    12    57    1
    60    12    58    1
    61    15    59    1
    62    15    60    1
    63    17    61    1
    64    19    62    1
@<TRIPOS>SUBSTRUCTURE
     1 RES1        1 GROUP             0 ****  ****    0  
@<TRIPOS>MOLECULE
7.76436525125
    62    64     1     0     0
SMALL
USER_CHARGES
****
Generated from the CSD

@<TRIPOS>ATOM
     1 C       20.9267  -1.3734  54.4901   C.3       1 RES1  15.8640
     2 O       21.9223  -2.1031  55.2202   O.3       1 RES1  12.5940
     3 C       22.9979  -1.2491  55.6355   C.3       1 RES1  15.7230
     4 C       23.5701  -0.5430  54.3914   C.3       1 RES1  17.9010
     5 O       24.9993  -0.4986  54.5089   O.3       1 RES1  17.9010
     6 C       25.6157   0.3916  53.6311   C.ar      1 RES1  17.9010
     7 C       24.8611   1.1278  52.7151   C.ar      1 RES1  17.9010
     8 C       25.4673   2.1235  51.9447   C.ar      1 RES1  17.9010
     9 C       26.8563   2.2534  51.9723   C.ar      1 RES1  14.3430
    10 C       27.6251   1.4552  52.8199   C.ar      1 RES1  17.3710
    11 C       27.0027   0.5397  53.6715   C.ar      1 RES1  17.9010
    12 O       27.7490  -0.2406  54.5550   O.3       1 RES1  17.4590
    13 C       29.1566  -0.3280  54.2877   C.3       1 RES1  17.6430
    14 C       29.4535  -1.3963  53.2149   C.3       1 RES1  17.6430
    15 O       28.6022  -2.5303  53.4352   O.3       1 RES1  17.3970
    16 C       27.3560  -2.3874  52.7386   C.3       1 RES1  17.2660
    17 N       27.4625   3.1500  51.1715   N.ar      1 RES1   7.6930
    18 C       26.7442   3.8871  50.3030   C.ar      1 RES1  15.8720
    19 N       25.4006   3.7994  50.2712   N.ar      1 RES1  17.3650
    20 C       24.7414   2.9970  51.1286   C.ar      1 RES1  17.7480
    21 N       23.3907   3.0673  51.1600   N.pl3     1 RES1   0.0000
    22 C       22.6210   2.5845  50.1557   C.ar      1 RES1  15.7050
    23 C       21.8059   1.4739  50.3875   C.ar      1 RES1  15.9740
    24 C       20.9756   0.9835  49.3786   C.ar      1 RES1  14.8560
    25 C       20.9644   1.5958  48.1253   C.ar      1 RES1   0.0000
    26 C       21.7999   2.6855  47.8790   C.ar      1 RES1  13.1590
    27 C       22.6311   3.1744  48.8880   C.ar      1 RES1  14.6660
    28 C       21.8065   3.3031  46.5780   C.1       1 RES1   0.0000
    29 C       21.8155   3.8180  45.4901   C.1       1 RES1   0.0000
    30 H1      21.3636  -0.9276  53.5840   H         1 RES1   0.0000
    31 H2      20.4942  -0.5800  55.1181   H         1 RES1   0.0000
    32 H3      20.1283  -2.0705  54.1960   H         1 RES1   0.0000
    33 H4      22.6303  -0.4894  56.3421   H         1 RES1   0.0000
    34 H5      23.7957  -1.8387  56.1127   H         1 RES1   0.0000
    35 H6      23.2501  -1.0929  53.4946   H         1 RES1   0.0000
    36 H7      23.1743   0.4823  54.3490   H         1 RES1   0.0000
    37 H8      23.8070   0.9139  52.5978   H         1 RES1   0.0000
    38 H9      28.7038   1.5526  52.8020   H         1 RES1   0.0000
    39 H10     29.7287  -0.5487  55.2000   H         1 RES1   0.0000
    40 H11     29.4840   0.6490  53.9017   H         1 RES1   0.0000
    41 H12     30.5112  -1.6960  53.2676   H         1 RES1   0.0000
    42 H13     29.2509  -0.9584  52.2255   H         1 RES1   0.0000
    43 H14     26.8073  -1.5097  53.1116   H         1 RES1   0.0000
    44 H15     26.7469  -3.2865  52.9121   H         1 RES1   0.0000
    45 H16     27.5298  -2.2760  51.6588   H         1 RES1   0.0000
    46 H17     27.2533   4.5599  49.6226   H         1 RES1   0.0000
    47 H18     22.9362   3.4547  51.9995   H         1 RES1   0.0000
    48 H19     21.8106   0.9887  51.3572   H         1 RES1   0.0000
    49 H20     20.3386   0.1269  49.5693   H         1 RES1   0.0000
    50 H21     20.3101   1.2244  47.3444   H         1 RES1   0.0000
    51 H22     23.2858   4.0107  48.6712   H         1 RES1   0.0000
    52 H23     21.8238   4.2695  44.5356   H         1 RES1   0.0000
    53 ****    22.2889  -2.8271  54.6358   Du        1 RES1   9.1040
    54 ****    21.4991  -2.5102  56.0295   Du        1 RES1   3.4900
    55 ****    25.3575  -1.4149  54.3298   Du        1 RES1  17.7850
    56 ****    25.2291  -0.2276  55.4436   Du        1 RES1  17.9010
    57 ****    27.3759  -1.1682  54.5331   Du        1 RES1  17.0960
    58 ****    27.6354   0.1427  55.4716   Du        1 RES1  17.3080
    59 ****    28.4202  -2.6160  54.4148   Du        1 RES1  14.8220
    60 ****    29.0656  -3.3542  53.1089   Du        1 RES1  15.9170
    61 ****    28.4540   3.2696  51.2220   Du        1 RES1   0.0000
    62 ****    24.8863   4.3366  49.6027   Du        1 RES1  17.7480
@<TRIPOS>BOND
     1     1     2    1
     2     2     3    1
     3     3     4    1
     4     4     5    1
     5     5     6    1
     6     6     7   ar
     7     7     8   ar
     8     8     9   ar
     9     9    10   ar
    10    10    11   ar
    11     6    11   ar
    12    11    12    1
    13    12    13    1
    14    13    14    1
    15    14    15    1
    16    15    16    1
    17     9    17   ar
    18    17    18   ar
    19    18    19   ar
    20    19    20   ar
    21     8    20   ar
    22    20    21    1
    23    21    22    1
    24    22    23   ar
    25    23    24   ar
    26    24    25   ar
    27    25    26   ar
    28    26    27   ar
    29    22    27   ar
    30    26    28    1
    31    28    29    3
    32     1    30    1
    33     1    31    1
    34     1    32    1
    35     3    33    1
    36     3    34    1
    37     4    35    1
    38     4    36    1
    39     7    37    1
    40    10    38    1
    41    13    39    1
    42    13    40    1
    43    14    41    1
    44    14    42    1
    45    16    43    1
    46    16    44    1
    47    16    45    1
    48    18    46    1
    49    21    47    1
    50    23    48    1
    51    24    49    1
    52    25    50    1
    53    27    51    1
    54    29    52    1
    55     2    53    1
    56     2    54    1
    57     5    55    1
    58     5    56    1
    59    12    57    1
    60    12    58    1
    61    15    59    1
    62    15    60    1
    63    17    61    1
    64    19    62    1
@<TRIPOS>SUBSTRUCTURE
     1 RES1        1 GROUP             0 ****  ****    0  
@<TRIPOS>MOLECULE
7.67974987397
    62    64     1     0     0
SMALL
USER_CHARGES
****
Generated from the CSD

@<TRIPOS>ATOM
     1 C       21.1175  -0.9534  54.6940   C.3       1 RES1  17.8750
     2 O       21.9819  -1.9361  55.2804   O.3       1 RES1  10.1610
     3 C       23.2655  -1.3805  55.6000   C.3       1 RES1  17.7880
     4 C       23.8879  -0.8132  54.3098   C.3       1 RES1  17.9010
     5 O       25.1822  -0.2798  54.6237   O.3       1 RES1  17.9010
     6 C       25.6880   0.5920  53.6609   C.ar      1 RES1  17.9010
     7 C       24.8326   1.2482  52.7730   C.ar      1 RES1  17.9010
     8 C       25.3313   2.2301  51.9131   C.ar      1 RES1  17.9010
     9 C       26.7107   2.4221  51.8274   C.ar      1 RES1  17.9010
    10 C       27.5781   1.7013  52.6489   C.ar      1 RES1  17.3610
    11 C       27.0655   0.8027  53.5872   C.ar      1 RES1  17.9010
    12 O       27.9122   0.1006  54.4454   O.3       1 RES1  17.1950
    13 C       29.2810  -0.0152  54.0286   C.3       1 RES1  17.6430
    14 C       29.6015  -1.4517  53.5659   C.3       1 RES1  17.6430
    15 O       28.4384  -2.2724  53.7469   O.3       1 RES1  17.3970
    16 C       27.4737  -2.0422  52.7101   C.3       1 RES1  17.2660
    17 N       27.2118   3.3038  50.9417   N.ar      1 RES1  11.7250
    18 C       26.3961   3.9647  50.0984   C.ar      1 RES1  15.9520
    19 N       25.0596   3.8166  50.1744   N.ar      1 RES1  17.6550
    20 C       24.5055   3.0295  51.1163   C.ar      1 RES1  17.7480
    21 N       23.1591   3.0420  51.2486   N.pl3     1 RES1   0.0000
    22 C       22.3343   2.6306  50.2564   C.ar      1 RES1  16.1550
    23 C       21.3434   1.6858  50.5337   C.ar      1 RES1  15.3110
    24 C       20.4576   1.2767  49.5358   C.ar      1 RES1  14.4990
    25 C       20.5654   1.8032  48.2486   C.ar      1 RES1   0.0000
    26 C       21.5732   2.7232  47.9585   C.ar      1 RES1   0.0000
    27 C       22.4597   3.1307  48.9566   C.ar      1 RES1  14.6660
    28 C       21.7001   3.2491  46.6239   C.1       1 RES1   0.0000
    29 C       21.8031   3.6867  45.5073   C.1       1 RES1   0.0000
    30 H1      21.5522  -0.5669  53.7600   H         1 RES1   0.0000
    31 H2      20.9515  -0.1208  55.3941   H         1 RES1   0.0000
    32 H3      20.1512  -1.4280  54.4686   H         1 RES1   0.0000
    33 H4      23.1569  -0.5672  56.3337   H         1 RES1   0.0000
    34 H5      23.9305  -2.1569  56.0084   H         1 RES1   0.0000
    35 H6      23.9471  -1.6178  53.5627   H         1 RES1   0.0000
    36 H7      23.2436  -0.0086  53.9262   H         1 RES1   0.0000
    37 H8      23.7840   0.9827  52.7475   H         1 RES1   0.0000
    38 H9      28.6465   1.8450  52.5432   H         1 RES1   0.0000
    39 H10     29.9740   0.2806  54.8288   H         1 RES1   0.0000
    40 H11     29.4281   0.6632  53.1749   H         1 RES1   0.0000
    41 H12     30.4465  -1.8522  54.1464   H         1 RES1   0.0000
    42 H13     29.8783  -1.4183  52.5010   H         1 RES1   0.0000
    43 H14     27.1251  -0.9990  52.7362   H         1 RES1   0.0000
    44 H15     26.6132  -2.7079  52.8712   H         1 RES1   0.0000
    45 H16     27.9109  -2.2552  51.7241   H         1 RES1   0.0000
    46 H17     26.8202   4.6247  49.3504   H         1 RES1   0.0000
    47 H18     22.7549   3.3255  52.1528   H         1 RES1   0.0000
    48 H19     21.2541   1.2677  51.5302   H         1 RES1   0.0000
    49 H20     19.6849   0.5500  49.7614   H         1 RES1   0.0000
    50 H21     19.8696   1.4965  47.4756   H         1 RES1   0.0000
    51 H22     23.2467   3.8328  48.7066   H         1 RES1   0.0000
    52 H23     21.8930   4.0704  44.5276   H         1 RES1   0.0000
    53 ****    22.1050  -2.6886  54.6335   Du        1 RES1  14.6510
    54 ****    21.5596  -2.2824  56.1181   Du        1 RES1   3.4900
    55 ****    25.8207  -1.0430  54.7225   Du        1 RES1  17.7340
    56 ****    25.1163   0.2141  55.4907   Du        1 RES1  17.9010
    57 ****    27.5450  -0.8239  54.5477   Du        1 RES1  17.0960
    58 ****    27.9011   0.5636  55.3317   Du        1 RES1  17.1950
    59 ****    28.0235  -2.0594  54.6315   Du        1 RES1  15.4340
    60 ****    28.7121  -3.2341  53.7300   Du        1 RES1  16.7680
    61 ****    28.1975   3.4691  50.9100   Du        1 RES1   4.4920
    62 ****    24.4716   4.2970  49.5237   Du        1 RES1  17.7480
@<TRIPOS>BOND
     1     1     2    1
     2     2     3    1
     3     3     4    1
     4     4     5    1
     5     5     6    1
     6     6     7   ar
     7     7     8   ar
     8     8     9   ar
     9     9    10   ar
    10    10    11   ar
    11     6    11   ar
    12    11    12    1
    13    12    13    1
    14    13    14    1
    15    14    15    1
    16    15    16    1
    17     9    17   ar
    18    17    18   ar
    19    18    19   ar
    20    19    20   ar
    21     8    20   ar
    22    20    21    1
    23    21    22    1
    24    22    23   ar
    25    23    24   ar
    26    24    25   ar
    27    25    26   ar
    28    26    27   ar
    29    22    27   ar
    30    26    28    1
    31    28    29    3
    32     1    30    1
    33     1    31    1
    34     1    32    1
    35     3    33    1
    36     3    34    1
    37     4    35    1
    38     4    36    1
    39     7    37    1
    40    10    38    1
    41    13    39    1
    42    13    40    1
    43    14    41    1
    44    14    42    1
    45    16    43    1
    46    16    44    1
    47    16    45    1
    48    18    46    1
    49    21    47    1
    50    23    48    1
    51    24    49    1
    52    25    50    1
    53    27    51    1
    54    29    52    1
    55     2    53    1
    56     2    54    1
    57     5    55    1
    58     5    56    1
    59    12    57    1
    60    12    58    1
    61    15    59    1
    62    15    60    1
    63    17    61    1
    64    19    62    1
@<TRIPOS>SUBSTRUCTURE
     1 RES1        1 GROUP             0 ****  ****    0  
@<TRIPOS>MOLECULE
7.66992288369
    62    64     1     0     0
SMALL
USER_CHARGES
****
Generated from the CSD

@<TRIPOS>ATOM
     1 C       21.2040  -1.2062  54.5952   C.3       1 RES1  17.8750
     2 O       22.0864  -2.0908  55.2992   O.3       1 RES1  10.1610
     3 C       23.3254  -1.4447  55.6249   C.3       1 RES1  17.7880
     4 C       23.9407  -0.8849  54.3281   C.3       1 RES1  17.9010
     5 O       25.2449  -0.3677  54.6281   O.3       1 RES1  17.9010
     6 C       25.7386   0.5210  53.6745   C.ar      1 RES1  17.9010
     7 C       24.8765   1.1581  52.7793   C.ar      1 RES1  17.9010
     8 C       25.3590   2.1564  51.9290   C.ar      1 RES1  17.9010
     9 C       26.7338   2.3849  51.8599   C.ar      1 RES1  17.9010
    10 C       27.6103   1.6837  52.6887   C.ar      1 RES1  17.3610
    11 C       27.1108   0.7681  53.6176   C.ar      1 RES1  17.9010
    12 O       27.9658   0.0849  54.4829   O.3       1 RES1  17.1950
    13 C       29.3450   0.0215  54.0899   C.3       1 RES1  17.6430
    14 C       29.8502  -1.4361  54.0676   C.3       1 RES1  17.6430
    15 O       28.7448  -2.3106  53.7982   O.3       1 RES1  17.3970
    16 C       28.0536  -1.9212  52.6028   C.3       1 RES1  17.0710
    17 N       27.2216   3.2830  50.9835   N.ar      1 RES1  11.7250
    18 C       26.3985   3.9257  50.1333   C.ar      1 RES1  15.9520
    19 N       25.0656   3.7423  50.1933   N.ar      1 RES1  17.7480
    20 C       24.5216   2.9370  51.1256   C.ar      1 RES1  17.7480
    21 N       23.1740   2.9135  51.2424   N.pl3     1 RES1   0.0000
    22 C       22.3689   2.5424  50.2186   C.ar      1 RES1  15.7050
    23 C       21.3796   1.5803  50.4361   C.ar      1 RES1  15.3110
    24 C       20.5136   1.2114  49.4057   C.ar      1 RES1  14.5400
    25 C       20.6400   1.7958  48.1454   C.ar      1 RES1   0.0000
    26 C       21.6465   2.7337  47.9143   C.ar      1 RES1   0.0000
    27 C       22.5132   3.1011  48.9450   C.ar      1 RES1  14.6660
    28 C       21.7928   3.3197  46.6070   C.1       1 RES1   0.0000
    29 C       21.9147   3.8130  45.5158   C.1       1 RES1   0.0000
    30 H1      21.6629  -0.8761  53.6511   H         1 RES1   0.0000
    31 H2      20.9654  -0.3284  55.2144   H         1 RES1   0.0000
    32 H3      20.2734  -1.7474  54.3700   H         1 RES1   0.0000
    33 H4      23.1495  -0.6148  56.3262   H         1 RES1   0.0000
    34 H5      24.0277  -2.1630  56.0750   H         1 RES1   0.0000
    35 H6      23.9818  -1.6899  53.5803   H         1 RES1   0.0000
    36 H7      23.3024  -0.0721  53.9518   H         1 RES1   0.0000
    37 H8      23.8356   0.8653  52.7406   H         1 RES1   0.0000
    38 H9      28.6757   1.8558  52.5959   H         1 RES1   0.0000
    39 H10     29.9823   0.6254  54.7512   H         1 RES1   0.0000
    40 H11     29.4203   0.4284  53.0704   H         1 RES1   0.0000
    41 H12     30.3102  -1.6877  55.0353   H         1 RES1   0.0000
    42 H13     30.6067  -1.5278  53.2732   H         1 RES1   0.0000
    43 H14     27.6308  -0.9118  52.7165   H         1 RES1   0.0000
    44 H15     27.2335  -2.6306  52.4194   H         1 RES1   0.0000
    45 H16     28.7372  -1.9344  51.7418   H         1 RES1   0.0000
    46 H17     26.8136   4.5997  49.3928   H         1 RES1   0.0000
    47 H18     22.7540   3.1363  52.1564   H         1 RES1   0.0000
    48 H19     21.2761   1.1175  51.4112   H         1 RES1   0.0000
    49 H20     19.7420   0.4709  49.5851   H         1 RES1   0.0000
    50 H21     19.9595   1.5201  47.3474   H         1 RES1   0.0000
    51 H22     23.2998   3.8183  48.7403   H         1 RES1   0.0000
    52 H23     22.0217   4.2461  44.5588   H         1 RES1   0.0000
    53 ****    22.2759  -2.8868  54.7243   Du        1 RES1   9.1040
    54 ****    21.6425  -2.3882  56.1445   Du        1 RES1   3.4900
    55 ****    25.8793  -1.1375  54.6980   Du        1 RES1  17.7340
    56 ****    25.1996   0.1077  55.5067   Du        1 RES1  17.9010
    57 ****    27.6290  -0.8528  54.5676   Du        1 RES1  17.0960
    58 ****    27.9228   0.5363  55.3741   Du        1 RES1  17.1950
    59 ****    28.1079  -2.2779  54.5685   Du        1 RES1  12.4340
    60 ****    29.0867  -3.2439  53.6879   Du        1 RES1  17.0050
    61 ****    28.2029   3.4743  50.9638   Du        1 RES1   4.4920
    62 ****    24.4727   4.2097  49.5376   Du        1 RES1  17.7480
@<TRIPOS>BOND
     1     1     2    1
     2     2     3    1
     3     3     4    1
     4     4     5    1
     5     5     6    1
     6     6     7   ar
     7     7     8   ar
     8     8     9   ar
     9     9    10   ar
    10    10    11   ar
    11     6    11   ar
    12    11    12    1
    13    12    13    1
    14    13    14    1
    15    14    15    1
    16    15    16    1
    17     9    17   ar
    18    17    18   ar
    19    18    19   ar
    20    19    20   ar
    21     8    20   ar
    22    20    21    1
    23    21    22    1
    24    22    23   ar
    25    23    24   ar
    26    24    25   ar
    27    25    26   ar
    28    26    27   ar
    29    22    27   ar
    30    26    28    1
    31    28    29    3
    32     1    30    1
    33     1    31    1
    34     1    32    1
    35     3    33    1
    36     3    34    1
    37     4    35    1
    38     4    36    1
    39     7    37    1
    40    10    38    1
    41    13    39    1
    42    13    40    1
    43    14    41    1
    44    14    42    1
    45    16    43    1
    46    16    44    1
    47    16    45    1
    48    18    46    1
    49    21    47    1
    50    23    48    1
    51    24    49    1
    52    25    50    1
    53    27    51    1
    54    29    52    1
    55     2    53    1
    56     2    54    1
    57     5    55    1
    58     5    56    1
    59    12    57    1
    60    12    58    1
    61    15    59    1
    62    15    60    1
    63    17    61    1
    64    19    62    1
@<TRIPOS>SUBSTRUCTURE
     1 RES1        1 GROUP             0 ****  ****    0  
@<TRIPOS>MOLECULE
7.49461518801
    62    64     1     0     0
SMALL
USER_CHARGES
****
Generated from the CSD

@<TRIPOS>ATOM
     1 C       20.8498  -1.4338  54.4325   C.3       1 RES1  15.8640
     2 O       21.8842  -2.1018  55.1676   O.3       1 RES1  12.5940
     3 C       22.9507  -1.2033  55.5050   C.3       1 RES1  15.7230
     4 C       23.4423  -0.5211  54.2140   C.3       1 RES1  17.9010
     5 O       24.8724  -0.6229  54.1602   O.3       1 RES1  17.9010
     6 C       25.4821   0.3369  53.3539   C.ar      1 RES1  17.9010
     7 C       24.7952   0.9064  52.2794   C.ar      1 RES1  17.9010
     8 C       25.3579   1.9711  51.5708   C.ar      1 RES1  17.9010
     9 C       26.6776   2.3407  51.8332   C.ar      1 RES1  17.9010
    10 C       27.4009   1.7108  52.8465   C.ar      1 RES1  17.3710
    11 C       26.7944   0.7244  53.6275   C.ar      1 RES1  17.9010
    12 O       27.4863   0.1092  54.6711   O.3       1 RES1  17.4590
    13 C       28.9087   0.0018  54.5104   C.3       1 RES1  17.6430
    14 C       29.2668  -0.9524  53.3522   C.3       1 RES1  17.6430
    15 O       28.5615  -2.1894  53.5296   O.3       1 RES1  17.3970
    16 C       27.3242  -2.1908  52.8032   C.3       1 RES1  17.2660
    17 N       27.2622   3.3071  51.1004   N.ar      1 RES1   6.8370
    18 C       26.6018   3.8849  50.0789   C.ar      1 RES1  15.9520
    19 N       25.3199   3.5647  49.8179   N.ar      1 RES1  17.7480
    20 C       24.6580   2.6834  50.5917   C.ar      1 RES1  17.7480
    21 N       23.3315   2.5192  50.3825   N.pl3     1 RES1   0.0000
    22 C       22.7512   2.7943  49.1902   C.ar      1 RES1  14.8770
    23 C       21.9833   1.8139  48.5570   C.ar      1 RES1  14.6040
    24 C       21.3443   2.0885  47.3471   C.ar      1 RES1   0.0000
    25 C       21.4794   3.3449  46.7562   C.ar      1 RES1   0.0000
    26 C       22.2709   4.3170  47.3684   C.ar      1 RES1  12.9260
    27 C       22.9109   4.0411  48.5777   C.ar      1 RES1  14.7610
    28 C       22.4302   5.6062  46.7468   C.1       1 RES1   0.0000
    29 C       22.5620   6.6855  46.2305   C.1       1 RES1   0.0000
    30 H1      21.2485  -1.0258  53.4915   H         1 RES1   0.0000
    31 H2      20.4172  -0.6188  55.0322   H         1 RES1   0.0000
    32 H3      20.0601  -2.1630  54.1994   H         1 RES1   0.0000
    33 H4      22.5928  -0.4324  56.2043   H         1 RES1   0.0000
    34 H5      23.7878  -1.7532  55.9619   H         1 RES1   0.0000
    35 H6      22.9647  -1.0095  53.3523   H         1 RES1   0.0000
    36 H7      23.1515   0.5393  54.2373   H         1 RES1   0.0000
    37 H8      23.8304   0.5099  51.9922   H         1 RES1   0.0000
    38 H9      28.4335   1.9933  53.0117   H         1 RES1   0.0000
    39 H10     29.3959  -0.3376  55.4355   H         1 RES1   0.0000
    40 H11     29.2930   1.0030  54.2641   H         1 RES1   0.0000
    41 H12     30.3529  -1.1302  53.3357   H         1 RES1   0.0000
    42 H13     28.9641  -0.4772  52.4065   H         1 RES1   0.0000
    43 H14     26.6597  -1.3977  53.1774   H         1 RES1   0.0000
    44 H15     26.8303  -3.1632  52.9444   H         1 RES1   0.0000
    45 H16     27.5080  -2.0354  51.7305   H         1 RES1   0.0000
    46 H17     27.1076   4.6174  49.4603   H         1 RES1   0.0000
    47 H18     22.7577   2.1235  51.1411   H         1 RES1   0.0000
    48 H19     21.8756   0.8330  49.0065   H         1 RES1   0.0000
    49 H20     20.7420   1.3253  46.8666   H         1 RES1   0.0000
    50 H21     20.9727   3.5642  45.8230   H         1 RES1   0.0000
    51 H22     23.5357   4.8038  49.0282   H         1 RES1   0.0000
    52 H23     22.6776   7.6325  45.7779   H         1 RES1   0.0000
    53 ****    22.2505  -2.8467  54.6099   Du        1 RES1   9.1040
    54 ****    21.4954  -2.4759  56.0095   Du        1 RES1   3.4900
    55 ****    25.1096  -1.5273  53.8056   Du        1 RES1  17.9010
    56 ****    25.2292  -0.5249  55.0892   Du        1 RES1  17.9010
    57 ****    27.1203  -0.8154  54.7770   Du        1 RES1  17.2010
    58 ****    27.3120   0.6341  55.5043   Du        1 RES1  17.3080
    59 ****    28.3687  -2.3182  54.5024   Du        1 RES1  14.8220
    60 ****    29.1334  -2.9410  53.2008   Du        1 RES1  17.0050
    61 ****    28.1942   3.5982  51.3164   Du        1 RES1   5.0320
    62 ****    24.8540   3.9865  49.0401   Du        1 RES1  17.7480
@<TRIPOS>BOND
     1     1     2    1
     2     2     3    1
     3     3     4    1
     4     4     5    1
     5     5     6    1
     6     6     7   ar
     7     7     8   ar
     8     8     9   ar
     9     9    10   ar
    10    10    11   ar
    11     6    11   ar
    12    11    12    1
    13    12    13    1
    14    13    14    1
    15    14    15    1
    16    15    16    1
    17     9    17   ar
    18    17    18   ar
    19    18    19   ar
    20    19    20   ar
    21     8    20   ar
    22    20    21    1
    23    21    22    1
    24    22    23   ar
    25    23    24   ar
    26    24    25   ar
    27    25    26   ar
    28    26    27   ar
    29    22    27   ar
    30    26    28    1
    31    28    29    3
    32     1    30    1
    33     1    31    1
    34     1    32    1
    35     3    33    1
    36     3    34    1
    37     4    35    1
    38     4    36    1
    39     7    37    1
    40    10    38    1
    41    13    39    1
    42    13    40    1
    43    14    41    1
    44    14    42    1
    45    16    43    1
    46    16    44    1
    47    16    45    1
    48    18    46    1
    49    21    47    1
    50    23    48    1
    51    24    49    1
    52    25    50    1
    53    27    51    1
    54    29    52    1
    55     2    53    1
    56     2    54    1
    57     5    55    1
    58     5    56    1
    59    12    57    1
    60    12    58    1
    61    15    59    1
    62    15    60    1
    63    17    61    1
    64    19    62    1
@<TRIPOS>SUBSTRUCTURE
     1 RES1        1 GROUP             0 ****  ****    0  
@<TRIPOS>MOLECULE
7.48382674731
    62    64     1     0     0
SMALL
USER_CHARGES
****
Generated from the CSD

@<TRIPOS>ATOM
     1 C       20.7726  -1.3705  54.3914   C.3       1 RES1  15.8640
     2 O       21.8132  -2.0971  55.0591   O.3       1 RES1  12.5940
     3 C       22.9513  -1.2628  55.3181   C.3       1 RES1  15.6760
     4 C       23.4088  -0.6330  53.9884   C.3       1 RES1  17.9010
     5 O       24.8318  -0.7796  53.8799   O.3       1 RES1  17.9010
     6 C       25.4523   0.2205  53.1331   C.ar      1 RES1  17.9010
     7 C       24.7555   0.8980  52.1301   C.ar      1 RES1  17.9010
     8 C       25.3358   1.9964  51.4905   C.ar      1 RES1  17.9010
     9 C       26.6755   2.2980  51.7384   C.ar      1 RES1  17.9010
    10 C       27.4047   1.5640  52.6744   C.ar      1 RES1  17.3610
    11 C       26.7856   0.5393  53.3938   C.ar      1 RES1  17.9010
    12 O       27.4850  -0.1815  54.3622   O.3       1 RES1  17.4590
    13 C       28.6837   0.4296  54.8626   C.3       1 RES1  17.3100
    14 C       29.8486   0.2680  53.8640   C.3       1 RES1  17.3040
    15 O       29.5976  -0.8744  53.0327   O.3       1 RES1  17.3990
    16 C       29.5965  -2.0860  53.8014   C.3       1 RES1  17.6430
    17 N       27.2733   3.2996  51.0661   N.ar      1 RES1   6.8370
    18 C       26.6048   3.9803  50.1158   C.ar      1 RES1  15.9520
    19 N       25.3047   3.7264  49.8719   N.ar      1 RES1  17.7480
    20 C       24.6340   2.8089  50.5943   C.ar      1 RES1  17.7480
    21 N       23.2967   2.7079  50.4159   N.pl3     1 RES1   0.0000
    22 C       22.7107   2.9389  49.2170   C.ar      1 RES1  14.6660
    23 C       21.9051   1.9518  48.6441   C.ar      1 RES1  14.6040
    24 C       21.2603   2.1833  47.4282   C.ar      1 RES1   0.0000
    25 C       21.4272   3.4024  46.7711   C.ar      1 RES1   0.0000
    26 C       22.2559   4.3794  47.3233   C.ar      1 RES1  12.9260
    27 C       22.9017   4.1465  48.5386   C.ar      1 RES1  14.7610
    28 C       22.4477   5.6289  46.6336   C.1       1 RES1   0.0000
    29 C       22.6114   6.6737  46.0587   C.1       1 RES1   0.0000
    30 H1      21.1300  -0.9890  53.4231   H         1 RES1   0.0000
    31 H2      20.4306  -0.5299  55.0138   H         1 RES1   0.0000
    32 H3      19.9272  -2.0521  54.2167   H         1 RES1   0.0000
    33 H4      22.6832  -0.4601  56.0219   H         1 RES1   0.0000
    34 H5      23.7776  -1.8575  55.7370   H         1 RES1   0.0000
    35 H6      22.8819  -1.1312  53.1618   H         1 RES1   0.0000
    36 H7      23.1501   0.4359  53.9919   H         1 RES1   0.0000
    37 H8      23.7685   0.5593  51.8438   H         1 RES1   0.0000
    38 H9      28.4514   1.7965  52.8279   H         1 RES1   0.0000
    39 H10     28.9715   0.0155  55.8393   H         1 RES1   0.0000
    40 H11     28.4830   1.5041  54.9878   H         1 RES1   0.0000
    41 H12     30.7956   0.1428  54.4107   H         1 RES1   0.0000
    42 H13     29.9047   1.1785  53.2479   H         1 RES1   0.0000
    43 H14     30.5821  -2.2477  54.2626   H         1 RES1   0.0000
    44 H15     29.3748  -2.9306  53.1329   H         1 RES1   0.0000
    45 H16     28.8296  -2.0415  54.5879   H         1 RES1   0.0000
    46 H17     27.1186   4.7423  49.5413   H         1 RES1   0.0000
    47 H18     22.7157   2.3950  51.2071   H         1 RES1   0.0000
    48 H19     21.7724   0.9995  49.1454   H         1 RES1   0.0000
    49 H20     20.6288   1.4156  46.9947   H         1 RES1   0.0000
    50 H21     20.9162   3.5889  45.8331   H         1 RES1   0.0000
    51 H22     23.5552   4.9114  48.9420   H         1 RES1   0.0000
    52 H23     22.7555   7.5902  45.5544   H         1 RES1   0.0000
    53 ****    22.0962  -2.8637  54.4826   Du        1 RES1  10.4540
    54 ****    21.4609  -2.4456  55.9277   Du        1 RES1   3.4900
    55 ****    25.0246  -1.6601  53.4468   Du        1 RES1  17.9010
    56 ****    25.2197  -0.7695  54.8016   Du        1 RES1  17.8810
    57 ****    27.7353  -1.0641  53.9644   Du        1 RES1  17.2460
    58 ****    26.8703  -0.3275  55.1373   Du        1 RES1  17.5500
    59 ****    30.3107  -0.9322  52.3340   Du        1 RES1  16.7910
    60 ****    28.7066  -0.7673  52.5916   Du        1 RES1  17.2970
    61 ****    28.2214   3.5401  51.2742   Du        1 RES1   5.0320
    62 ****    24.8319   4.2253  49.1456   Du        1 RES1  17.7480
@<TRIPOS>BOND
     1     1     2    1
     2     2     3    1
     3     3     4    1
     4     4     5    1
     5     5     6    1
     6     6     7   ar
     7     7     8   ar
     8     8     9   ar
     9     9    10   ar
    10    10    11   ar
    11     6    11   ar
    12    11    12    1
    13    12    13    1
    14    13    14    1
    15    14    15    1
    16    15    16    1
    17     9    17   ar
    18    17    18   ar
    19    18    19   ar
    20    19    20   ar
    21     8    20   ar
    22    20    21    1
    23    21    22    1
    24    22    23   ar
    25    23    24   ar
    26    24    25   ar
    27    25    26   ar
    28    26    27   ar
    29    22    27   ar
    30    26    28    1
    31    28    29    3
    32     1    30    1
    33     1    31    1
    34     1    32    1
    35     3    33    1
    36     3    34    1
    37     4    35    1
    38     4    36    1
    39     7    37    1
    40    10    38    1
    41    13    39    1
    42    13    40    1
    43    14    41    1
    44    14    42    1
    45    16    43    1
    46    16    44    1
    47    16    45    1
    48    18    46    1
    49    21    47    1
    50    23    48    1
    51    24    49    1
    52    25    50    1
    53    27    51    1
    54    29    52    1
    55     2    53    1
    56     2    54    1
    57     5    55    1
    58     5    56    1
    59    12    57    1
    60    12    58    1
    61    15    59    1
    62    15    60    1
    63    17    61    1
    64    19    62    1
@<TRIPOS>SUBSTRUCTURE
     1 RES1        1 GROUP             0 ****  ****    0  
@<TRIPOS>MOLECULE
7.4242113737
    62    64     1     0     0
SMALL
USER_CHARGES
****
Generated from the CSD

@<TRIPOS>ATOM
     1 C       21.2238  -0.9416  54.7078   C.3       1 RES1  17.8750
     2 O       22.0712  -1.9409  55.2910   O.3       1 RES1  10.1610
     3 C       23.3611  -1.4061  55.6207   C.3       1 RES1  17.7880
     4 C       23.9703  -0.7808  54.3513   C.3       1 RES1  17.9010
     5 O       25.2165  -0.1616  54.7005   O.3       1 RES1  17.9010
     6 C       25.7362   0.6710  53.7108   C.ar      1 RES1  17.9010
     7 C       24.8976   1.2619  52.7630   C.ar      1 RES1  17.9010
     8 C       25.4045   2.2096  51.8701   C.ar      1 RES1  17.9010
     9 C       26.7818   2.4275  51.8191   C.ar      1 RES1  14.3430
    10 C       27.6358   1.7690  52.7043   C.ar      1 RES1  14.3440
    11 C       27.1108   0.9083  53.6709   C.ar      1 RES1  17.9010
    12 O       27.9426   0.2697  54.5911   O.3       1 RES1  17.1950
    13 C       29.3493   0.3127  54.3084   C.3       1 RES1  17.3100
    14 C       29.7843  -0.9039  53.4653   C.3       1 RES1  17.6430
    15 O       28.9552  -2.0262  53.8003   O.3       1 RES1  17.6430
    16 C       28.0137  -2.3070  52.7546   C.3       1 RES1  16.7580
    17 N       27.2939   3.2738  50.9057   N.ar      1 RES1   6.8370
    18 C       26.4935   3.8726  50.0034   C.ar      1 RES1  15.9520
    19 N       25.1585   3.6989  50.0438   N.ar      1 RES1  17.7480
    20 C       24.5895   2.9487  51.0067   C.ar      1 RES1  17.7480
    21 N       23.2395   2.9379  51.0946   N.pl3     1 RES1   0.0000
    22 C       22.4508   2.6593  50.0296   C.ar      1 RES1  15.7050
    23 C       21.4474   1.6949  50.1510   C.ar      1 RES1  15.1470
    24 C       20.5980   1.4196  49.0784   C.ar      1 RES1  13.7930
    25 C       20.7551   2.1011  47.8714   C.ar      1 RES1   0.0000
    26 C       21.7757   3.0423  47.7349   C.ar      1 RES1   0.0000
    27 C       22.6258   3.3159  48.8076   C.ar      1 RES1  14.6630
    28 C       21.9537   3.7288  46.4815   C.1       1 RES1   0.0000
    29 C       22.0995   4.3050  45.4348   C.1       1 RES1   0.0000
    30 H1      21.6685  -0.5545  53.7788   H         1 RES1   0.0000
    31 H2      21.0663  -0.1119  55.4134   H         1 RES1   0.0000
    32 H3      20.2519  -1.4006  54.4745   H         1 RES1   0.0000
    33 H4      23.2650  -0.6282  56.3934   H         1 RES1   0.0000
    34 H5      24.0275  -2.2037  55.9837   H         1 RES1   0.0000
    35 H6      24.1027  -1.5700  53.5972   H         1 RES1   0.0000
    36 H7      23.2795  -0.0187  53.9617   H         1 RES1   0.0000
    37 H8      23.8562   0.9722  52.7174   H         1 RES1   0.0000
    38 H9      28.7040   1.9308  52.6260   H         1 RES1   0.0000
    39 H10     29.9461   0.3583  55.2304   H         1 RES1   0.0000
    40 H11     29.5443   1.2247  53.7244   H         1 RES1   0.0000
    41 H12     30.8418  -1.1372  53.6624   H         1 RES1   0.0000
    42 H13     29.6629  -0.6487  52.4014   H         1 RES1   0.0000
    43 H14     27.3362  -1.4523  52.6096   H         1 RES1   0.0000
    44 H15     27.4186  -3.1870  53.0391   H         1 RES1   0.0000
    45 H16     28.5382  -2.5194  51.8120   H         1 RES1   0.0000
    46 H17     26.9286   4.5028  49.2364   H         1 RES1   0.0000
    47 H18     22.8038   3.0967  52.0146   H         1 RES1   0.0000
    48 H19     21.3200   1.1571  51.0839   H         1 RES1   0.0000
    49 H20     19.8152   0.6765  49.1836   H         1 RES1   0.0000
    50 H21     20.0875   1.8981  47.0414   H         1 RES1   0.0000
    51 H22     23.4237   4.0376  48.6756   H         1 RES1   0.0000
    52 H23     22.2272   4.8108  44.5167   H         1 RES1   0.0000
    53 ****    22.1866  -2.6903  54.6391   Du        1 RES1  14.6510
    54 ****    21.6400  -2.2873  56.1241   Du        1 RES1   3.4900
    55 ****    25.8840  -0.8827  54.8865   Du        1 RES1  17.7340
    56 ****    25.0755   0.3833  55.5270   Du        1 RES1  17.9010
    57 ****    27.6691  -0.6911  54.6345   Du        1 RES1  17.1540
    58 ****    27.7972   0.6983  55.4828   Du        1 RES1  17.1950
    59 ****    28.4559  -1.8229  54.6426   Du        1 RES1  16.4670
    60 ****    29.5345  -2.8289  53.9417   Du        1 RES1  17.0050
    61 ****    28.2765   3.4592  50.8973   Du        1 RES1   0.0000
    62 ****    24.5828   4.1323  49.3505   Du        1 RES1  17.7480
@<TRIPOS>BOND
     1     1     2    1
     2     2     3    1
     3     3     4    1
     4     4     5    1
     5     5     6    1
     6     6     7   ar
     7     7     8   ar
     8     8     9   ar
     9     9    10   ar
    10    10    11   ar
    11     6    11   ar
    12    11    12    1
    13    12    13    1
    14    13    14    1
    15    14    15    1
    16    15    16    1
    17     9    17   ar
    18    17    18   ar
    19    18    19   ar
    20    19    20   ar
    21     8    20   ar
    22    20    21    1
    23    21    22    1
    24    22    23   ar
    25    23    24   ar
    26    24    25   ar
    27    25    26   ar
    28    26    27   ar
    29    22    27   ar
    30    26    28    1
    31    28    29    3
    32     1    30    1
    33     1    31    1
    34     1    32    1
    35     3    33    1
    36     3    34    1
    37     4    35    1
    38     4    36    1
    39     7    37    1
    40    10    38    1
    41    13    39    1
    42    13    40    1
    43    14    41    1
    44    14    42    1
    45    16    43    1
    46    16    44    1
    47    16    45    1
    48    18    46    1
    49    21    47    1
    50    23    48    1
    51    24    49    1
    52    25    50    1
    53    27    51    1
    54    29    52    1
    55     2    53    1
    56     2    54    1
    57     5    55    1
    58     5    56    1
    59    12    57    1
    60    12    58    1
    61    15    59    1
    62    15    60    1
    63    17    61    1
    64    19    62    1
@<TRIPOS>SUBSTRUCTURE
     1 RES1        1 GROUP             0 ****  ****    0  
@<TRIPOS>MOLECULE
7.3377690682
    62    64     1     0     0
SMALL
USER_CHARGES
****
Generated from the CSD

@<TRIPOS>ATOM
     1 C       20.9863  -1.2653  54.4407   C.3       1 RES1  15.8640
     2 O       21.9511  -2.0302  55.1762   O.3       1 RES1  12.5940
     3 C       23.0454  -1.2116  55.6132   C.3       1 RES1  15.7230
     4 C       23.7286  -0.6054  54.3725   C.3       1 RES1  17.9010
     5 O       24.8828   0.1310  54.8013   O.3       1 RES1  17.9010
     6 C       25.4751   0.8968  53.7985   C.ar      1 RES1  17.9010
     7 C       24.7234   1.3584  52.7156   C.ar      1 RES1  17.9010
     8 C       25.2876   2.2466  51.7964   C.ar      1 RES1  17.9010
     9 C       26.6524   2.5274  51.8717   C.ar      1 RES1  17.9010
    10 C       27.4290   1.9938  52.9007   C.ar      1 RES1  17.3710
    11 C       26.8351   1.1976  53.8826   C.ar      1 RES1  17.9010
    12 O       27.5850   0.6859  54.9420   O.3       1 RES1  17.4590
    13 C       29.0074   0.8565  54.8506   C.3       1 RES1  17.0760
    14 C       29.6856  -0.4155  54.3005   C.3       1 RES1  17.6430
    15 O       28.8690  -0.9677  53.2577   O.3       1 RES1  17.6430
    16 C       28.9960  -2.3957  53.1997   C.3       1 RES1  17.6430
    17 N       27.2281   3.3132  50.9424   N.ar      1 RES1  11.7250
    18 C       26.5090   3.7886  49.9078   C.ar      1 RES1  15.9520
    19 N       25.1857   3.5530  49.8224   N.ar      1 RES1  17.7480
    20 C       24.5442   2.8643  50.7856   C.ar      1 RES1  17.7480
    21 N       23.1942   2.7944  50.7303   N.pl3     1 RES1   0.0000
    22 C       22.5171   2.8622  49.5594   C.ar      1 RES1  14.9180
    23 C       21.6100   1.8520  49.2304   C.ar      1 RES1  14.4870
    24 C       20.8729   1.9216  48.0473   C.ar      1 RES1   0.0000
    25 C       21.0478   2.9991  47.1789   C.ar      1 RES1   0.0000
    26 C       21.9754   3.9943  47.4874   C.ar      1 RES1   0.0000
    27 C       22.7133   3.9232  48.6700   C.ar      1 RES1  14.6630
    28 C       22.1737   5.0946  46.5797   C.1       1 RES1   0.0000
    29 C       22.3399   6.0117  45.8180   C.1       1 RES1   0.0000
    30 H1      21.4475  -0.8239  53.5445   H         1 RES1   0.0000
    31 H2      20.5688  -0.4656  55.0709   H         1 RES1   0.0000
    32 H3      20.1720  -1.9361  54.1299   H         1 RES1   0.0000
    33 H4      22.6787  -0.3963  56.2553   H         1 RES1   0.0000
    34 H5      23.7796  -1.8147  56.1691   H         1 RES1   0.0000
    35 H6      23.9955  -1.4193  53.6830   H         1 RES1   0.0000
    36 H7      23.0240   0.0762  53.8740   H         1 RES1   0.0000
    37 H8      23.7057   1.0143  52.5870   H         1 RES1   0.0000
    38 H9      28.4920   2.2008  52.9214   H         1 RES1   0.0000
    39 H10     29.4465   1.1206  55.8230   H         1 RES1   0.0000
    40 H11     29.1998   1.6814  54.1483   H         1 RES1   0.0000
    41 H12     29.8193  -1.1485  55.1105   H         1 RES1   0.0000
    42 H13     30.6719  -0.1357  53.8999   H         1 RES1   0.0000
    43 H14     30.0331  -2.6787  52.9653   H         1 RES1   0.0000
    44 H15     28.3361  -2.7793  52.4080   H         1 RES1   0.0000
    45 H16     28.7037  -2.8469  54.1587   H         1 RES1   0.0000
    46 H17     27.0007   4.3687  49.1355   H         1 RES1   0.0000
    47 H18     22.6724   2.6327  51.6037   H         1 RES1   0.0000
    48 H19     21.4701   1.0084  49.8971   H         1 RES1   0.0000
    49 H20     20.1636   1.1383  47.8037   H         1 RES1   0.0000
    50 H21     20.4661   3.0616  46.2658   H         1 RES1   0.0000
    51 H22     23.4418   4.6972  48.8828   H         1 RES1   0.0000
    52 H23     22.4856   6.8160  45.1496   H         1 RES1   0.0000
    53 ****    22.3040  -2.7590  54.5895   Du        1 RES1   9.1040
    54 ****    21.5059  -2.4324  55.9762   Du        1 RES1   3.4900
    55 ****    25.5617  -0.5196  55.1417   Du        1 RES1  17.9010
    56 ****    24.6071   0.7433  55.5423   Du        1 RES1  16.5020
    57 ****    27.3983  -0.2946  55.0026   Du        1 RES1  17.1540
    58 ****    27.2767   1.1364  55.7799   Du        1 RES1  17.1300
    59 ****    29.1528  -0.5793  52.3811   Du        1 RES1  17.3340
    60 ****    27.9131  -0.7322  53.4329   Du        1 RES1  17.3450
    61 ****    28.1975   3.5458  51.0210   Du        1 RES1   4.4920
    62 ****    24.6733   3.8936  49.0341   Du        1 RES1  17.7480
@<TRIPOS>BOND
     1     1     2    1
     2     2     3    1
     3     3     4    1
     4     4     5    1
     5     5     6    1
     6     6     7   ar
     7     7     8   ar
     8     8     9   ar
     9     9    10   ar
    10    10    11   ar
    11     6    11   ar
    12    11    12    1
    13    12    13    1
    14    13    14    1
    15    14    15    1
    16    15    16    1
    17     9    17   ar
    18    17    18   ar
    19    18    19   ar
    20    19    20   ar
    21     8    20   ar
    22    20    21    1
    23    21    22    1
    24    22    23   ar
    25    23    24   ar
    26    24    25   ar
    27    25    26   ar
    28    26    27   ar
    29    22    27   ar
    30    26    28    1
    31    28    29    3
    32     1    30    1
    33     1    31    1
    34     1    32    1
    35     3    33    1
    36     3    34    1
    37     4    35    1
    38     4    36    1
    39     7    37    1
    40    10    38    1
    41    13    39    1
    42    13    40    1
    43    14    41    1
    44    14    42    1
    45    16    43    1
    46    16    44    1
    47    16    45    1
    48    18    46    1
    49    21    47    1
    50    23    48    1
    51    24    49    1
    52    25    50    1
    53    27    51    1
    54    29    52    1
    55     2    53    1
    56     2    54    1
    57     5    55    1
    58     5    56    1
    59    12    57    1
    60    12    58    1
    61    15    59    1
    62    15    60    1
    63    17    61    1
    64    19    62    1
@<TRIPOS>SUBSTRUCTURE
     1 RES1        1 GROUP             0 ****  ****    0  
@<TRIPOS>MOLECULE
7.33682672794
    62    64     1     0     0
SMALL
USER_CHARGES
****
Generated from the CSD

@<TRIPOS>ATOM
     1 C       20.8859  -1.4867  54.3766   C.3       1 RES1  15.8640
     2 O       21.9088  -2.1004  55.1728   O.3       1 RES1  12.5940
     3 C       22.9084  -1.1489  55.5651   C.3       1 RES1  15.7230
     4 C       23.4281  -0.4365  54.3017   C.3       1 RES1  17.9010
     5 O       24.8619  -0.4879  54.3060   O.3       1 RES1  17.9010
     6 C       25.4680   0.4433  53.4642   C.ar      1 RES1  17.9010
     7 C       24.7855   0.9558  52.3587   C.ar      1 RES1  17.9010
     8 C       25.3423   1.9955  51.6094   C.ar      1 RES1  17.9010
     9 C       26.6544   2.3934  51.8685   C.ar      1 RES1  17.9010
    10 C       27.3747   1.8183  52.9159   C.ar      1 RES1  17.3710
    11 C       26.7723   0.8595  53.7336   C.ar      1 RES1  17.9010
    12 O       27.4608   0.3000  54.8103   O.3       1 RES1  17.4590
    13 C       28.8937   0.3265  54.7276   C.3       1 RES1  17.3100
    14 C       29.4078  -0.6695  53.6675   C.3       1 RES1  17.6430
    15 O       28.9772  -1.9922  54.0200   O.3       1 RES1  17.6430
    16 C       28.3810  -2.6604  52.8989   C.3       1 RES1  17.3970
    17 N       27.2345   3.3341  51.0996   N.ar      1 RES1  11.7250
    18 C       26.5779   3.8577  50.0469   C.ar      1 RES1  15.9520
    19 N       25.3029   3.5096  49.7874   N.ar      1 RES1  17.7480
    20 C       24.6439   2.6547  50.5927   C.ar      1 RES1  17.7480
    21 N       23.3219   2.4642  50.3777   N.pl3     1 RES1   0.0000
    22 C       22.7351   2.7601  49.1935   C.ar      1 RES1  14.6660
    23 C       21.9860   1.7824  48.5343   C.ar      1 RES1  14.6040
    24 C       21.3405   2.0771  47.3326   C.ar      1 RES1   0.0000
    25 C       21.4504   3.3515  46.7760   C.ar      1 RES1   0.0000
    26 C       22.2232   4.3220  47.4140   C.ar      1 RES1   0.0000
    27 C       22.8697   4.0260  48.6151   C.ar      1 RES1  14.7610
    28 C       22.3566   5.6305  46.8276   C.1       1 RES1   0.0000
    29 C       22.4672   6.7228  46.3341   C.1       1 RES1   0.0000
    30 H1      21.3166  -1.0618  53.4576   H         1 RES1   0.0000
    31 H2      20.3800  -0.6928  54.9465   H         1 RES1   0.0000
    32 H3      20.1479  -2.2551  54.1033   H         1 RES1   0.0000
    33 H4      22.4759  -0.4007  56.2467   H         1 RES1   0.0000
    34 H5      23.7490  -1.6564  56.0628   H         1 RES1   0.0000
    35 H6      23.0036  -0.9321  53.4167   H         1 RES1   0.0000
    36 H7      23.0994   0.6129  54.3226   H         1 RES1   0.0000
    37 H8      23.8288   0.5345  52.0796   H         1 RES1   0.0000
    38 H9      28.4018   2.1212  53.0788   H         1 RES1   0.0000
    39 H10     29.3591   0.1081  55.6992   H         1 RES1   0.0000
    40 H11     29.1912   1.3406  54.4214   H         1 RES1   0.0000
    41 H12     30.5064  -0.6262  53.6148   H         1 RES1   0.0000
    42 H13     28.9876  -0.3830  52.6913   H         1 RES1   0.0000
    43 H14     27.4830  -2.1200  52.5643   H         1 RES1   0.0000
    44 H15     28.0905  -3.6763  53.2042   H         1 RES1   0.0000
    45 H16     29.0963  -2.7279  52.0668   H         1 RES1   0.0000
    46 H17     27.0809   4.5687  49.4017   H         1 RES1   0.0000
    47 H18     22.7579   2.0323  51.1238   H         1 RES1   0.0000
    48 H19     21.8980   0.7877  48.9570   H         1 RES1   0.0000
    49 H20     20.7529   1.3156  46.8318   H         1 RES1   0.0000
    50 H21     20.9385   3.5861  45.8493   H         1 RES1   0.0000
    51 H22     23.4798   4.7883  49.0859   H         1 RES1   0.0000
    52 H23     22.5641   7.6808  45.9008   H         1 RES1   0.0000
    53 ****    22.3427  -2.8275  54.6408   Du        1 RES1   9.1040
    54 ****    21.4918  -2.4911  55.9934   Du        1 RES1   3.4900
    55 ****    25.1440  -1.4027  54.0170   Du        1 RES1  17.9010
    56 ****    25.1792  -0.3205  55.2394   Du        1 RES1  17.9010
    57 ****    27.1773  -0.6556  54.8907   Du        1 RES1  17.5500
    58 ****    27.1933   0.7975  55.6355   Du        1 RES1  17.9010
    59 ****    28.3051  -1.9305  54.7579   Du        1 RES1  12.8010
    60 ****    29.7671  -2.5201  54.3319   Du        1 RES1  17.0980
    61 ****    28.1604   3.6465  51.3119   Du        1 RES1   5.0320
    62 ****    24.8400   3.8906  48.9871   Du        1 RES1  17.7480
@<TRIPOS>BOND
     1     1     2    1
     2     2     3    1
     3     3     4    1
     4     4     5    1
     5     5     6    1
     6     6     7   ar
     7     7     8   ar
     8     8     9   ar
     9     9    10   ar
    10    10    11   ar
    11     6    11   ar
    12    11    12    1
    13    12    13    1
    14    13    14    1
    15    14    15    1
    16    15    16    1
    17     9    17   ar
    18    17    18   ar
    19    18    19   ar
    20    19    20   ar
    21     8    20   ar
    22    20    21    1
    23    21    22    1
    24    22    23   ar
    25    23    24   ar
    26    24    25   ar
    27    25    26   ar
    28    26    27   ar
    29    22    27   ar
    30    26    28    1
    31    28    29    3
    32     1    30    1
    33     1    31    1
    34     1    32    1
    35     3    33    1
    36     3    34    1
    37     4    35    1
    38     4    36    1
    39     7    37    1
    40    10    38    1
    41    13    39    1
    42    13    40    1
    43    14    41    1
    44    14    42    1
    45    16    43    1
    46    16    44    1
    47    16    45    1
    48    18    46    1
    49    21    47    1
    50    23    48    1
    51    24    49    1
    52    25    50    1
    53    27    51    1
    54    29    52    1
    55     2    53    1
    56     2    54    1
    57     5    55    1
    58     5    56    1
    59    12    57    1
    60    12    58    1
    61    15    59    1
    62    15    60    1
    63    17    61    1
    64    19    62    1
@<TRIPOS>SUBSTRUCTURE
     1 RES1        1 GROUP             0 ****  ****    0  
@<TRIPOS>MOLECULE
7.33488444182
    62    64     1     0     0
SMALL
USER_CHARGES
****
Generated from the CSD

@<TRIPOS>ATOM
     1 C       20.8005  -1.3422  54.4001   C.3       1 RES1  15.8640
     2 O       21.8329  -2.0988  55.0469   O.3       1 RES1  12.5940
     3 C       22.9875  -1.2894  55.3119   C.3       1 RES1  15.6760
     4 C       23.4216  -0.6115  53.9982   C.3       1 RES1  17.9010
     5 O       24.8391  -0.7737  53.8477   O.3       1 RES1  17.9010
     6 C       25.4496   0.2243  53.0900   C.ar      1 RES1  17.9010
     7 C       24.7503   0.8742  52.0706   C.ar      1 RES1  17.9010
     8 C       25.3182   1.9716  51.4181   C.ar      1 RES1  17.9010
     9 C       26.6506   2.2989  51.6720   C.ar      1 RES1  17.9010
    10 C       27.3838   1.5920  52.6257   C.ar      1 RES1  17.3610
    11 C       26.7753   0.5689  53.3564   C.ar      1 RES1  17.9010
    12 O       27.4781  -0.1247  54.3420   O.3       1 RES1  17.4590
    13 C       28.9092  -0.1044  54.2313   C.3       1 RES1  17.6430
    14 C       29.4130  -1.2481  53.3267   C.3       1 RES1  17.6430
    15 O       28.5860  -2.4034  53.5282   O.3       1 RES1  17.3970
    16 C       27.4158  -2.3555  52.6995   C.3       1 RES1  17.2660
    17 N       27.2378   3.2993  50.9886   N.ar      1 RES1  11.7250
    18 C       26.5664   3.9537  50.0220   C.ar      1 RES1  15.9520
    19 N       25.2727   3.6748  49.7717   N.ar      1 RES1  17.7480
    20 C       24.6108   2.7581  50.5032   C.ar      1 RES1  17.7480
    21 N       23.2769   2.6324  50.3156   N.pl3     1 RES1   0.0000
    22 C       22.6903   2.8889  49.1222   C.ar      1 RES1  14.6660
    23 C       21.8962   1.9089  48.5219   C.ar      1 RES1  14.6040
    24 C       21.2508   2.1657  47.3114   C.ar      1 RES1   0.0000
    25 C       21.4057   3.4035  46.6872   C.ar      1 RES1   0.0000
    26 C       22.2230   4.3743  47.2666   C.ar      1 RES1   0.0000
    27 C       22.8694   4.1161  48.4764   C.ar      1 RES1  14.7610
    28 C       22.4025   5.6436  46.6106   C.1       1 RES1   0.0000
    29 C       22.5531   6.7063  46.0657   C.1       1 RES1   0.0000
    30 H1      21.1575  -0.9498  53.4361   H         1 RES1   0.0000
    31 H2      20.4780  -0.5070  55.0400   H         1 RES1   0.0000
    32 H3      19.9419  -2.0055  54.2199   H         1 RES1   0.0000
    33 H4      22.7465  -0.5129  56.0539   H         1 RES1   0.0000
    34 H5      23.8157  -1.9105  55.6864   H         1 RES1   0.0000
    35 H6      22.8669  -1.0673  53.1654   H         1 RES1   0.0000
    36 H7      23.1795   0.4600  54.0523   H         1 RES1   0.0000
    37 H8      23.7715   0.5150  51.7818   H         1 RES1   0.0000
    38 H9      28.4252   1.8440  52.7840   H         1 RES1   0.0000
    39 H10     29.3921  -0.1699  55.2166   H         1 RES1   0.0000
    40 H11     29.1943   0.8524  53.7689   H         1 RES1   0.0000
    41 H12     30.4614  -1.4814  53.5672   H         1 RES1   0.0000
    42 H13     29.3480  -0.9150  52.2795   H         1 RES1   0.0000
    43 H14     26.7985  -1.4824  52.9587   H         1 RES1   0.0000
    44 H15     26.8256  -3.2687  52.8648   H         1 RES1   0.0000
    45 H16     27.6981  -2.2993  51.6384   H         1 RES1   0.0000
    46 H17     27.0726   4.7148  49.4395   H         1 RES1   0.0000
    47 H18     22.7003   2.2807  51.0936   H         1 RES1   0.0000
    48 H19     21.7730   0.9422  48.9974   H         1 RES1   0.0000
    49 H20     20.6282   1.4031  46.8565   H         1 RES1   0.0000
    50 H21     20.8942   3.6094  45.7535   H         1 RES1   0.0000
    51 H22     23.5142   4.8769  48.9011   H         1 RES1   0.0000
    52 H23     22.6855   7.6387  45.5880   H         1 RES1   0.0000
    53 ****    22.0980  -2.8598  54.4548   Du        1 RES1  10.4540
    54 ****    21.4808  -2.4565  55.9118   Du        1 RES1   3.4900
    55 ****    25.0090  -1.6534  53.4035   Du        1 RES1  17.9010
    56 ****    25.2534  -0.7745  54.7579   Du        1 RES1  17.7850
    57 ****    27.1831  -1.0798  54.3124   Du        1 RES1  17.2010
    58 ****    27.2347   0.2720  55.2270   Du        1 RES1  17.9010
    59 ****    28.3052  -2.4401  54.4873   Du        1 RES1  14.8220
    60 ****    29.1116  -3.2239  53.3032   Du        1 RES1  17.0050
    61 ****    28.1801   3.5585  51.2005   Du        1 RES1   4.4920
    62 ****    24.7980   4.1542  49.0336   Du        1 RES1  17.7480
@<TRIPOS>BOND
     1     1     2    1
     2     2     3    1
     3     3     4    1
     4     4     5    1
     5     5     6    1
     6     6     7   ar
     7     7     8   ar
     8     8     9   ar
     9     9    10   ar
    10    10    11   ar
    11     6    11   ar
    12    11    12    1
    13    12    13    1
    14    13    14    1
    15    14    15    1
    16    15    16    1
    17     9    17   ar
    18    17    18   ar
    19    18    19   ar
    20    19    20   ar
    21     8    20   ar
    22    20    21    1
    23    21    22    1
    24    22    23   ar
    25    23    24   ar
    26    24    25   ar
    27    25    26   ar
    28    26    27   ar
    29    22    27   ar
    30    26    28    1
    31    28    29    3
    32     1    30    1
    33     1    31    1
    34     1    32    1
    35     3    33    1
    36     3    34    1
    37     4    35    1
    38     4    36    1
    39     7    37    1
    40    10    38    1
    41    13    39    1
    42    13    40    1
    43    14    41    1
    44    14    42    1
    45    16    43    1
    46    16    44    1
    47    16    45    1
    48    18    46    1
    49    21    47    1
    50    23    48    1
    51    24    49    1
    52    25    50    1
    53    27    51    1
    54    29    52    1
    55     2    53    1
    56     2    54    1
    57     5    55    1
    58     5    56    1
    59    12    57    1
    60    12    58    1
    61    15    59    1
    62    15    60    1
    63    17    61    1
    64    19    62    1
@<TRIPOS>SUBSTRUCTURE
     1 RES1        1 GROUP             0 ****  ****    0  
@<TRIPOS>MOLECULE
7.28346135066
    62    64     1     0     0
SMALL
USER_CHARGES
****
Generated from the CSD

@<TRIPOS>ATOM
     1 C       20.9932  -1.2945  54.3864   C.3       1 RES1  15.8640
     2 O       21.9399  -2.0348  55.1689   O.3       1 RES1  12.5940
     3 C       23.0181  -1.1996  55.6144   C.3       1 RES1  15.7230
     4 C       23.7964  -0.7057  54.3799   C.3       1 RES1  17.9010
     5 O       24.9461   0.0263  54.8281   O.3       1 RES1  17.9010
     6 C       25.5402   0.8132  53.8429   C.ar      1 RES1  17.9010
     7 C       24.8190   1.2074  52.7136   C.ar      1 RES1  17.9010
     8 C       25.3729   2.1160  51.8081   C.ar      1 RES1  17.9010
     9 C       26.7107   2.4866  51.9490   C.ar      1 RES1  17.9010
    10 C       27.4643   2.0213  53.0271   C.ar      1 RES1  17.3710
    11 C       26.8716   1.2037  53.9919   C.ar      1 RES1  17.9010
    12 O       27.5955   0.7590  55.0985   O.3       1 RES1  17.4690
    13 C       29.0242   0.8608  55.0024   C.3       1 RES1  17.0760
    14 C       29.5965  -0.2200  54.0619   C.3       1 RES1  17.6430
    15 O       28.8056  -1.4113  54.1816   O.3       1 RES1  17.6430
    16 C       29.1681  -2.3779  53.1852   C.3       1 RES1  17.6430
    17 N       27.2832   3.2936  51.0359   N.ar      1 RES1   6.8370
    18 C       26.5909   3.7044  49.9563   C.ar      1 RES1  17.7480
    19 N       25.2920   3.3814  49.8066   N.ar      1 RES1  17.7480
    20 C       24.6459   2.6676  50.7483   C.ar      1 RES1  17.7480
    21 N       23.3082   2.5086  50.6241   N.pl3     1 RES1   0.0000
    22 C       22.6703   2.6732  49.4408   C.ar      1 RES1  14.9180
    23 C       21.8518   1.6515  48.9532   C.ar      1 RES1  14.6470
    24 C       21.1544   1.8151  47.7555   C.ar      1 RES1   0.0000
    25 C       21.2811   3.0004  47.0309   C.ar      1 RES1   0.0000
    26 C       22.1219   4.0112  47.4973   C.ar      1 RES1   0.0000
    27 C       22.8202   3.8461  48.6945   C.ar      1 RES1  14.7610
    28 C       22.2717   5.2253  46.7376   C.1       1 RES1   0.0000
    29 C       22.3992   6.2383  46.1001   C.1       1 RES1   0.0000
    30 H1      21.4777  -0.8749  53.4920   H         1 RES1   0.0000
    31 H2      20.5549  -0.4802  54.9829   H         1 RES1   0.0000
    32 H3      20.1907  -1.9773  54.0709   H         1 RES1   0.0000
    33 H4      22.6250  -0.3298  56.1625   H         1 RES1   0.0000
    34 H5      23.7005  -1.7665  56.2662   H         1 RES1   0.0000
    35 H6      24.0778  -1.5752  53.7684   H         1 RES1   0.0000
    36 H7      23.1471  -0.0422  53.7902   H         1 RES1   0.0000
    37 H8      23.8339   0.7954  52.5389   H         1 RES1   0.0000
    38 H9      28.5091   2.2978  53.0991   H         1 RES1   0.0000
    39 H10     29.5025   0.7856  55.9892   H         1 RES1   0.0000
    40 H11     29.2602   1.8481  54.5777   H         1 RES1   0.0000
    41 H12     30.6446  -0.4285  54.3252   H         1 RES1   0.0000
    42 H13     29.5521   0.1609  53.0300   H         1 RES1   0.0000
    43 H14     28.9783  -1.9788  52.1776   H         1 RES1   0.0000
    44 H15     28.5589  -3.2821  53.3291   H         1 RES1   0.0000
    45 H16     30.2308  -2.6443  53.2768   H         1 RES1   0.0000
    46 H17     27.0846   4.3032  49.1996   H         1 RES1   0.0000
    47 H18     22.7693   2.2024  51.4470   H         1 RES1   0.0000
    48 H19     21.7500   0.7249  49.5073   H         1 RES1   0.0000
    49 H20     20.5134   1.0212  47.3885   H         1 RES1   0.0000
    50 H21     20.7295   3.1345  46.1070   H         1 RES1   0.0000
    51 H22     23.4821   4.6359  49.0306   H         1 RES1   0.0000
    52 H23     22.5112   7.1268  45.5405   H         1 RES1   0.0000
    53 ****    22.3123  -2.7774  54.6121   Du        1 RES1   9.1040
    54 ****    21.4740  -2.4177  55.9666   Du        1 RES1   3.4900
    55 ****    25.6256  -0.6285  55.1590   Du        1 RES1  17.9010
    56 ****    24.6648   0.6232  55.5794   Du        1 RES1  16.5020
    57 ****    27.3673  -0.2034  55.2461   Du        1 RES1  17.4590
    58 ****    27.3037   1.2959  55.8901   Du        1 RES1  14.4380
    59 ****    27.8404  -1.1745  54.0703   Du        1 RES1  17.2460
    60 ****    28.9489  -1.8081  55.0883   Du        1 RES1  12.8010
    61 ****    28.2300   3.5903  51.1604   Du        1 RES1   4.4920
    62 ****    24.8014   3.6753  48.9863   Du        1 RES1  17.7480
@<TRIPOS>BOND
     1     1     2    1
     2     2     3    1
     3     3     4    1
     4     4     5    1
     5     5     6    1
     6     6     7   ar
     7     7     8   ar
     8     8     9   ar
     9     9    10   ar
    10    10    11   ar
    11     6    11   ar
    12    11    12    1
    13    12    13    1
    14    13    14    1
    15    14    15    1
    16    15    16    1
    17     9    17   ar
    18    17    18   ar
    19    18    19   ar
    20    19    20   ar
    21     8    20   ar
    22    20    21    1
    23    21    22    1
    24    22    23   ar
    25    23    24   ar
    26    24    25   ar
    27    25    26   ar
    28    26    27   ar
    29    22    27   ar
    30    26    28    1
    31    28    29    3
    32     1    30    1
    33     1    31    1
    34     1    32    1
    35     3    33    1
    36     3    34    1
    37     4    35    1
    38     4    36    1
    39     7    37    1
    40    10    38    1
    41    13    39    1
    42    13    40    1
    43    14    41    1
    44    14    42    1
    45    16    43    1
    46    16    44    1
    47    16    45    1
    48    18    46    1
    49    21    47    1
    50    23    48    1
    51    24    49    1
    52    25    50    1
    53    27    51    1
    54    29    52    1
    55     2    53    1
    56     2    54    1
    57     5    55    1
    58     5    56    1
    59    12    57    1
    60    12    58    1
    61    15    59    1
    62    15    60    1
    63    17    61    1
    64    19    62    1
@<TRIPOS>SUBSTRUCTURE
     1 RES1        1 GROUP             0 ****  ****    0  
@<TRIPOS>MOLECULE
7.2402882576
    62    64     1     0     0
SMALL
USER_CHARGES
****
Generated from the CSD

@<TRIPOS>ATOM
     1 C       20.7333  -1.6924  54.1468   C.3       1 RES1  17.7370
     2 O       21.8141  -2.0709  55.0101   O.3       1 RES1  12.5940
     3 C       22.6469  -0.9471  55.3301   C.3       1 RES1  13.7180
     4 C       23.6195  -0.7100  54.1590   C.3       1 RES1  17.9010
     5 O       24.7803  -0.0318  54.6600   O.3       1 RES1  17.9010
     6 C       25.4131   0.7830  53.7228   C.ar      1 RES1  17.9010
     7 C       24.7464   1.1884  52.5644   C.ar      1 RES1  17.9010
     8 C       25.3329   2.1227  51.7068   C.ar      1 RES1  17.9010
     9 C       26.6553   2.5104  51.9255   C.ar      1 RES1  17.9010
    10 C       27.3581   2.0353  53.0333   C.ar      1 RES1  17.3710
    11 C       26.7283   1.1902  53.9497   C.ar      1 RES1  17.9010
    12 O       27.3997   0.7348  55.0847   O.3       1 RES1  17.4590
    13 C       28.8335   0.7378  55.0154   C.3       1 RES1  17.3100
    14 C       29.3405  -0.2523  53.9463   C.3       1 RES1  17.6430
    15 O       28.6339  -1.4935  54.0852   O.3       1 RES1  17.3970
    16 C       29.0005  -2.4184  53.0514   C.3       1 RES1  17.6430
    17 N       27.2624   3.3435  51.0595   N.ar      1 RES1   6.8370
    18 C       26.6218   3.7650  49.9525   C.ar      1 RES1  15.9520
    19 N       25.3379   3.4258  49.7279   N.ar      1 RES1  17.7480
    20 C       24.6543   2.6841  50.6203   C.ar      1 RES1  17.7480
    21 N       23.3277   2.5077  50.4222   N.pl3     1 RES1   0.0000
    22 C       22.7356   2.7732  49.2335   C.ar      1 RES1  14.6660
    23 C       21.9583   1.7893  48.6177   C.ar      1 RES1  14.6040
    24 C       21.3074   2.0543  47.4120   C.ar      1 RES1   0.0000
    25 C       21.4399   3.3047  46.8080   C.ar      1 RES1   0.0000
    26 C       22.2406   4.2802  47.4026   C.ar      1 RES1   0.0000
    27 C       22.8925   4.0138  48.6077   C.ar      1 RES1  14.7610
    28 C       22.3971   5.5630  46.7673   C.1       1 RES1   0.0000
    29 C       22.5276   6.6336  46.2328   C.1       1 RES1   0.0000
    30 H1      21.1207  -1.2878  53.1998   H         1 RES1   0.0000
    31 H2      20.0971  -0.9390  54.6354   H         1 RES1   0.0000
    32 H3      20.1280  -2.5855  53.9327   H         1 RES1   0.0000
    33 H4      22.0318  -0.0457  55.4739   H         1 RES1   0.0000
    34 H5      23.2269  -1.1455  56.2444   H         1 RES1   0.0000
    35 H6      23.8748  -1.6806  53.7097   H         1 RES1   0.0000
    36 H7      23.1245  -0.0803  53.4054   H         1 RES1   0.0000
    37 H8      23.7786   0.7654  52.3298   H         1 RES1   0.0000
    38 H9      28.3932   2.3259  53.1659   H         1 RES1   0.0000
    39 H10     29.2861   0.4982  55.9880   H         1 RES1   0.0000
    40 H11     29.1512   1.7507  54.7259   H         1 RES1   0.0000
    41 H12     30.4226  -0.4124  54.0675   H         1 RES1   0.0000
    42 H13     29.1485   0.1826  52.9535   H         1 RES1   0.0000
    43 H14     28.7301  -2.0157  52.0638   H         1 RES1   0.0000
    44 H15     28.4583  -3.3620  53.2102   H         1 RES1   0.0000
    45 H16     30.0813  -2.6179  53.0795   H         1 RES1   0.0000
    46 H17     27.1452   4.3858  49.2345   H         1 RES1   0.0000
    47 H18     22.7633   2.1098  51.1868   H         1 RES1   0.0000
    48 H19     21.8525   0.8129  49.0776   H         1 RES1   0.0000
    49 H20     20.6979   1.2885  46.9452   H         1 RES1   0.0000
    50 H21     20.9240   3.5168  45.8781   H         1 RES1   0.0000
    51 H22     23.5242   4.7787  49.0444   H         1 RES1   0.0000
    52 H23     22.6419   7.5726  45.7636   H         1 RES1   0.0000
    53 ****    22.3680  -2.7663  54.5522   Du        1 RES1   9.1040
    54 ****    21.4379  -2.4484  55.8562   Du        1 RES1   3.4900
    55 ****    25.4358  -0.7198  54.9714   Du        1 RES1  17.9010
    56 ****    24.5017   0.5373  55.4336   Du        1 RES1  16.5020
    57 ****    27.1044  -0.2048  55.2577   Du        1 RES1  17.9010
    58 ****    27.1299   1.3157  55.8527   Du        1 RES1  15.3070
    59 ****    27.6511  -1.3171  54.0314   Du        1 RES1  17.1970
    60 ****    28.8522  -1.8953  54.9745   Du        1 RES1  12.8010
    61 ****    28.1965   3.6518  51.2397   Du        1 RES1   4.4920
    62 ****    24.8867   3.7283  48.8884   Du        1 RES1  17.7480
@<TRIPOS>BOND
     1     1     2    1
     2     2     3    1
     3     3     4    1
     4     4     5    1
     5     5     6    1
     6     6     7   ar
     7     7     8   ar
     8     8     9   ar
     9     9    10   ar
    10    10    11   ar
    11     6    11   ar
    12    11    12    1
    13    12    13    1
    14    13    14    1
    15    14    15    1
    16    15    16    1
    17     9    17   ar
    18    17    18   ar
    19    18    19   ar
    20    19    20   ar
    21     8    20   ar
    22    20    21    1
    23    21    22    1
    24    22    23   ar
    25    23    24   ar
    26    24    25   ar
    27    25    26   ar
    28    26    27   ar
    29    22    27   ar
    30    26    28    1
    31    28    29    3
    32     1    30    1
    33     1    31    1
    34     1    32    1
    35     3    33    1
    36     3    34    1
    37     4    35    1
    38     4    36    1
    39     7    37    1
    40    10    38    1
    41    13    39    1
    42    13    40    1
    43    14    41    1
    44    14    42    1
    45    16    43    1
    46    16    44    1
    47    16    45    1
    48    18    46    1
    49    21    47    1
    50    23    48    1
    51    24    49    1
    52    25    50    1
    53    27    51    1
    54    29    52    1
    55     2    53    1
    56     2    54    1
    57     5    55    1
    58     5    56    1
    59    12    57    1
    60    12    58    1
    61    15    59    1
    62    15    60    1
    63    17    61    1
    64    19    62    1
@<TRIPOS>SUBSTRUCTURE
     1 RES1        1 GROUP             0 ****  ****    0  
@<TRIPOS>MOLECULE
7.23569213427
    62    64     1     0     0
SMALL
USER_CHARGES
****
Generated from the CSD

@<TRIPOS>ATOM
     1 C       20.9744  -0.9692  54.6583   C.3       1 RES1  17.8750
     2 O       21.8771  -1.9061  55.2617   O.3       1 RES1  10.1610
     3 C       23.1364  -1.2934  55.5737   C.3       1 RES1  15.6760
     4 C       23.6823  -0.6211  54.2994   C.3       1 RES1  17.9010
     5 O       25.0882  -0.3923  54.4707   O.3       1 RES1  17.9010
     6 C       25.6353   0.5046  53.5545   C.ar      1 RES1  17.9010
     7 C       24.8474   1.0631  52.5456   C.ar      1 RES1  17.9010
     8 C       25.3644   2.0708  51.7272   C.ar      1 RES1  17.9010
     9 C       26.7208   2.3870  51.8123   C.ar      1 RES1  17.9010
    10 C       27.5347   1.7640  52.7589   C.ar      1 RES1  17.3710
    11 C       26.9865   0.8395  53.6508   C.ar      1 RES1  17.9010
    12 O       27.7737   0.2338  54.6306   O.3       1 RES1  17.1950
    13 C       29.1822   0.1710  54.3609   C.3       1 RES1  17.6430
    14 C       29.5300  -1.0658  53.5067   C.3       1 RES1  17.6430
    15 O       28.5826  -2.1074  53.7835   O.3       1 RES1  17.3970
    16 C       27.4562  -2.0338  52.8978   C.3       1 RES1  17.2660
    17 N       27.2522   3.2946  50.9718   N.ar      1 RES1   6.8370
    18 C       26.4974   3.8623  50.0119   C.ar      1 RES1  15.9520
    19 N       25.1808   3.5935  49.9213   N.ar      1 RES1  17.7480
    20 C       24.5813   2.7762  50.8080   C.ar      1 RES1  17.7480
    21 N       23.2334   2.6674  50.7672   N.pl3     1 RES1   0.0000
    22 C       22.5395   2.7463  49.6068   C.ar      1 RES1  14.9180
    23 C       21.6466   1.7263  49.2692   C.ar      1 RES1  14.8560
    24 C       20.8925   1.8061  48.0976   C.ar      1 RES1   0.0000
    25 C       21.0360   2.9039  47.2490   C.ar      1 RES1   0.0000
    26 C       21.9494   3.9097  47.5656   C.ar      1 RES1   0.0000
    27 C       22.7043   3.8285  48.7368   C.ar      1 RES1  14.6630
    28 C       22.1154   5.0315  46.6780   C.1       1 RES1   0.0000
    29 C       22.2547   5.9667  45.9332   C.1       1 RES1   0.0000
    30 H1      21.3947  -0.5804  53.7187   H         1 RES1   0.0000
    31 H2      20.7733  -0.1328  55.3447   H         1 RES1   0.0000
    32 H3      20.0287  -1.4864  54.4396   H         1 RES1   0.0000
    33 H4      23.0052  -0.5290  56.3547   H         1 RES1   0.0000
    34 H5      23.8581  -2.0499  55.9181   H         1 RES1   0.0000
    35 H6      23.4758  -1.2742  53.4392   H         1 RES1   0.0000
    36 H7      23.1696   0.3412  54.1557   H         1 RES1   0.0000
    37 H8      23.8388   0.7020  52.3945   H         1 RES1   0.0000
    38 H9      28.5908   2.0032  52.7861   H         1 RES1   0.0000
    39 H10     29.7717   0.1594  55.2886   H         1 RES1   0.0000
    40 H11     29.4529   1.0719  53.7900   H         1 RES1   0.0000
    41 H12     30.5509  -1.4057  53.7383   H         1 RES1   0.0000
    42 H13     29.4768  -0.7790  52.4452   H         1 RES1   0.0000
    43 H14     26.9214  -1.0824  53.0367   H         1 RES1   0.0000
    44 H15     26.7703  -2.8627  53.1258   H         1 RES1   0.0000
    45 H16     27.7836  -2.1179  51.8517   H         1 RES1   0.0000
    46 H17     26.9547   4.5446  49.3046   H         1 RES1   0.0000
    47 H18     22.7278   2.4669  51.6422   H         1 RES1   0.0000
    48 H19     21.5310   0.8670  49.9204   H         1 RES1   0.0000
    49 H20     20.1943   1.0149  47.8473   H         1 RES1   0.0000
    50 H21     20.4410   2.9740  46.3451   H         1 RES1   0.0000
    51 H22     23.4213   4.6113  48.9558   H         1 RES1   0.0000
    52 H23     22.3769   6.7869  45.2794   H         1 RES1   0.0000
    53 ****    22.0321  -2.6633  54.6273   Du        1 RES1  14.6510
    54 ****    21.4678  -2.2557  56.1044   Du        1 RES1   3.4900
    55 ****    25.5626  -1.2673  54.3750   Du        1 RES1  17.7850
    56 ****    25.2376  -0.0310  55.3911   Du        1 RES1  17.9010
    57 ****    27.4440  -0.7024  54.7516   Du        1 RES1  17.1540
    58 ****    27.6483   0.7440  55.4815   Du        1 RES1  17.3080
    59 ****    28.2627  -2.0150  54.7264   Du        1 RES1  16.4670
    60 ****    29.0302  -2.9942  53.6687   Du        1 RES1  17.0050
    61 ****    28.2152   3.5491  51.0610   Du        1 RES1   4.4920
    62 ****    24.6419   4.0059  49.1868   Du        1 RES1  17.7480
@<TRIPOS>BOND
     1     1     2    1
     2     2     3    1
     3     3     4    1
     4     4     5    1
     5     5     6    1
     6     6     7   ar
     7     7     8   ar
     8     8     9   ar
     9     9    10   ar
    10    10    11   ar
    11     6    11   ar
    12    11    12    1
    13    12    13    1
    14    13    14    1
    15    14    15    1
    16    15    16    1
    17     9    17   ar
    18    17    18   ar
    19    18    19   ar
    20    19    20   ar
    21     8    20   ar
    22    20    21    1
    23    21    22    1
    24    22    23   ar
    25    23    24   ar
    26    24    25   ar
    27    25    26   ar
    28    26    27   ar
    29    22    27   ar
    30    26    28    1
    31    28    29    3
    32     1    30    1
    33     1    31    1
    34     1    32    1
    35     3    33    1
    36     3    34    1
    37     4    35    1
    38     4    36    1
    39     7    37    1
    40    10    38    1
    41    13    39    1
    42    13    40    1
    43    14    41    1
    44    14    42    1
    45    16    43    1
    46    16    44    1
    47    16    45    1
    48    18    46    1
    49    21    47    1
    50    23    48    1
    51    24    49    1
    52    25    50    1
    53    27    51    1
    54    29    52    1
    55     2    53    1
    56     2    54    1
    57     5    55    1
    58     5    56    1
    59    12    57    1
    60    12    58    1
    61    15    59    1
    62    15    60    1
    63    17    61    1
    64    19    62    1
@<TRIPOS>SUBSTRUCTURE
     1 RES1        1 GROUP             0 ****  ****    0  
@<TRIPOS>MOLECULE
7.15969214073
    62    64     1     0     0
SMALL
USER_CHARGES
****
Generated from the CSD

@<TRIPOS>ATOM
     1 C       20.8785  -1.0532  54.3986   C.3       1 RES1  17.8750
     2 O       21.8408  -1.9124  55.0251   O.3       1 RES1  12.5940
     3 C       23.0403  -1.1995  55.3592   C.3       1 RES1  15.7230
     4 C       23.6278  -0.5986  54.0679   C.3       1 RES1  17.9010
     5 O       25.0414  -0.4294  54.2455   O.3       1 RES1  17.9010
     6 C       25.6204   0.4858  53.3679   C.ar      1 RES1  17.9010
     7 C       24.8770   1.0419  52.3244   C.ar      1 RES1  17.9010
     8 C       25.4189   2.0664  51.5440   C.ar      1 RES1  17.9010
     9 C       26.7635   2.4038  51.7031   C.ar      1 RES1  14.3430
    10 C       27.5373   1.7844  52.6850   C.ar      1 RES1  14.3440
    11 C       26.9589   0.8417  53.5380   C.ar      1 RES1  17.9010
    12 O       27.7040   0.2388  54.5519   O.3       1 RES1  17.4590
    13 C       29.1248   0.1947  54.3520   C.3       1 RES1  17.6430
    14 C       29.5234  -0.9962  53.4558   C.3       1 RES1  17.6430
    15 O       28.6522  -2.1024  53.7324   O.3       1 RES1  17.3970
    16 C       27.4836  -2.0639  52.9007   C.3       1 RES1  17.2660
    17 N       27.3227   3.3287  50.9003   N.ar      1 RES1   6.8370
    18 C       26.6096   3.8940  49.9076   C.ar      1 RES1  15.9520
    19 N       25.3043   3.6047  49.7456   N.ar      1 RES1  17.7480
    20 C       24.6731   2.7685  50.5918   C.ar      1 RES1  17.7480
    21 N       23.3312   2.6381  50.4793   N.pl3     1 RES1   0.0000
    22 C       22.6819   2.8569  49.3112   C.ar      1 RES1  14.9180
    23 C       21.8408   1.8673  48.7965   C.ar      1 RES1  14.6470
    24 C       21.1318   2.0866  47.6146   C.ar      1 RES1   0.0000
    25 C       21.2693   3.2959  46.9328   C.ar      1 RES1   0.0000
    26 C       22.1322   4.2749  47.4257   C.ar      1 RES1   0.0000
    27 C       22.8421   4.0542  48.6070   C.ar      1 RES1  14.7610
    28 C       22.2929   5.5140  46.7096   C.1       1 RES1   0.0000
    29 C       22.4300   6.5507  46.1135   C.1       1 RES1   0.0000
    30 H1      21.2856  -0.6354  53.4656   H         1 RES1   0.0000
    31 H2      20.5969  -0.2332  55.0763   H         1 RES1   0.0000
    32 H3      19.9820  -1.6455  54.1636   H         1 RES1   0.0000
    33 H4      22.8155  -0.3848  56.0643   H         1 RES1   0.0000
    34 H5      23.7803  -1.8797  55.8081   H         1 RES1   0.0000
    35 H6      23.3985  -1.2713  53.2289   H         1 RES1   0.0000
    36 H7      23.1620   0.3808  53.8856   H         1 RES1   0.0000
    37 H8      23.8838   0.6659  52.1173   H         1 RES1   0.0000
    38 H9      28.5863   2.0405  52.7698   H         1 RES1   0.0000
    39 H10     29.6661   0.1385  55.3070   H         1 RES1   0.0000
    40 H11     29.4187   1.1242  53.8417   H         1 RES1   0.0000
    41 H12     30.5702  -1.2761  53.6489   H         1 RES1   0.0000
    42 H13     29.4199  -0.6875  52.4043   H         1 RES1   0.0000
    43 H14     26.9013  -1.1521  53.1006   H         1 RES1   0.0000
    44 H15     26.8585  -2.9404  53.1254   H         1 RES1   0.0000
    45 H16     27.7667  -2.0894  51.8387   H         1 RES1   0.0000
    46 H17     27.0916   4.5911  49.2319   H         1 RES1   0.0000
    47 H18     22.7969   2.3120  51.2976   H         1 RES1   0.0000
    48 H19     21.7305   0.9225  49.3171   H         1 RES1   0.0000
    49 H20     20.4734   1.3173  47.2266   H         1 RES1   0.0000
    50 H21     20.7089   3.4731  46.0216   H         1 RES1   0.0000
    51 H22     23.5210   4.8203  48.9637   H         1 RES1   0.0000
    52 H23     22.5507   7.4602  45.5908   H         1 RES1   0.0000
    53 ****    22.0690  -2.6571  54.3979   Du        1 RES1  14.6510
    54 ****    21.4436  -2.2907  55.8612   Du        1 RES1   3.4900
    55 ****    25.4831  -1.3163  54.1105   Du        1 RES1  17.9010
    56 ****    25.2049  -0.1144  55.1804   Du        1 RES1  17.9010
    57 ****    27.3801  -0.7021  54.6504   Du        1 RES1  17.1540
    58 ****    27.5302   0.7416  55.3987   Du        1 RES1  17.3080
    59 ****    28.3713  -2.0644  54.6914   Du        1 RES1  16.4670
    60 ****    29.1450  -2.9559  53.5630   Du        1 RES1  17.0050
    61 ****    28.2752   3.5980  51.0423   Du        1 RES1   0.0000
    62 ****    24.7976   4.0159  48.9879   Du        1 RES1  17.7480
@<TRIPOS>BOND
     1     1     2    1
     2     2     3    1
     3     3     4    1
     4     4     5    1
     5     5     6    1
     6     6     7   ar
     7     7     8   ar
     8     8     9   ar
     9     9    10   ar
    10    10    11   ar
    11     6    11   ar
    12    11    12    1
    13    12    13    1
    14    13    14    1
    15    14    15    1
    16    15    16    1
    17     9    17   ar
    18    17    18   ar
    19    18    19   ar
    20    19    20   ar
    21     8    20   ar
    22    20    21    1
    23    21    22    1
    24    22    23   ar
    25    23    24   ar
    26    24    25   ar
    27    25    26   ar
    28    26    27   ar
    29    22    27   ar
    30    26    28    1
    31    28    29    3
    32     1    30    1
    33     1    31    1
    34     1    32    1
    35     3    33    1
    36     3    34    1
    37     4    35    1
    38     4    36    1
    39     7    37    1
    40    10    38    1
    41    13    39    1
    42    13    40    1
    43    14    41    1
    44    14    42    1
    45    16    43    1
    46    16    44    1
    47    16    45    1
    48    18    46    1
    49    21    47    1
    50    23    48    1
    51    24    49    1
    52    25    50    1
    53    27    51    1
    54    29    52    1
    55     2    53    1
    56     2    54    1
    57     5    55    1
    58     5    56    1
    59    12    57    1
    60    12    58    1
    61    15    59    1
    62    15    60    1
    63    17    61    1
    64    19    62    1
@<TRIPOS>SUBSTRUCTURE
     1 RES1        1 GROUP             0 ****  ****    0  
