@<TRIPOS>MOLECULE
constraints
     1     0     1     0     0
SMALL
NO_CHARGES
****
Generated from the CSD - Crystal connectivity not present

@<TRIPOS>ATOM
     1 Du       8.7062  -2.3458  24.5427   C.3       1 RES1   0.0000
@<TRIPOS>SUBSTRUCTURE
     1 RES1        1 GROUP             0 ****  ****    0  
