@<TRIPOS>MOLECULE
fitting_pts
  1428     0     1     0     0
SMALL
USER_CHARGES
****
Generated from the CSD - Crystal connectivity not present

@<TRIPOS>ATOM
     1 17.29   19.5000  -1.5000  53.0000   C.3       1 RES1  17.2900
     2 17.29   19.5000  -1.5000  53.5000   C.3       1 RES1  17.2900
     3 17.29   19.5000  -1.5000  54.0000   C.3       1 RES1  17.2900
     4 17.29   19.5000  -1.0000  53.0000   C.3       1 RES1  17.2900
     5 17.29   19.5000  -0.5000  53.0000   C.3       1 RES1  17.2900
     6 17.85   25.0000   1.5000  50.5000   C.3       1 RES1  17.8530
     7 17.85   25.0000   2.0000  50.5000   C.3       1 RES1  17.8530
     8 17.85   25.0000   2.5000  50.5000   C.3       1 RES1  17.8530
     9 17.85   25.5000   1.5000  50.5000   C.3       1 RES1  17.8530
    10 17.85   25.5000   2.0000  50.5000   C.3       1 RES1  17.8530
    11 17.85   25.5000   2.5000  50.5000   C.3       1 RES1  17.8530
    12 17.85   26.0000   1.5000  50.5000   C.3       1 RES1  17.8530
    13 17.85   26.0000   2.0000  50.5000   C.3       1 RES1  17.8530
    14 17.85   26.0000   2.5000  50.5000   C.3       1 RES1  17.8530
    15 17.38   24.0000  -2.0000  54.5000   C.3       1 RES1  17.3800
    16 17.38   24.0000  -2.0000  55.0000   C.3       1 RES1  17.3800
    17 17.38   24.0000  -2.0000  55.5000   C.3       1 RES1  17.3800
    18 17.88   21.5000   0.5000  52.5000   C.3       1 RES1  17.8750
    19 17.88   21.5000   0.5000  53.0000   C.3       1 RES1  17.8750
    20 17.13   19.5000   0.5000  53.0000   C.3       1 RES1  17.1290
    21 17.13   19.5000   0.5000  53.5000   C.3       1 RES1  17.1290
    22 17.13   19.5000   0.5000  54.0000   C.3       1 RES1  17.1290
    23 17.90   21.5000  -1.0000  53.5000   C.3       1 RES1  17.8960
    24 17.90   21.5000  -1.0000  54.0000   C.3       1 RES1  17.8960
    25 17.90   21.5000  -0.5000  53.5000   C.3       1 RES1  17.8960
    26 17.90   21.5000  -0.5000  54.0000   C.3       1 RES1  17.8960
    27 17.90   21.5000  -0.5000  54.5000   C.3       1 RES1  17.8960
    28 17.90   21.5000   0.0000  52.0000   C.3       1 RES1  17.8960
    29 17.90   21.5000   0.0000  52.5000   C.3       1 RES1  17.8960
    30 17.90   21.5000   0.0000  53.0000   C.3       1 RES1  17.8960
    31 17.90   21.5000   0.0000  53.5000   C.3       1 RES1  17.8960
    32 17.90   21.5000   0.0000  54.0000   C.3       1 RES1  17.8960
    33 17.90   21.5000   0.0000  54.5000   C.3       1 RES1  17.8960
    34 17.90   22.0000  -1.0000  53.5000   C.3       1 RES1  17.8960
    35 17.90   22.0000  -1.0000  54.0000   C.3       1 RES1  17.8960
    36 17.90   22.0000  -0.5000  54.5000   C.3       1 RES1  17.8960
    37 17.90   22.0000   0.0000  54.5000   C.3       1 RES1  17.8960
    38 17.05   23.0000   3.0000  53.5000   C.3       1 RES1  17.0470
    39 17.05   23.5000  -0.5000  52.0000   C.3       1 RES1  17.0470
    40 17.05   23.5000   3.5000  53.5000   C.3       1 RES1  17.0470
    41 17.75   20.5000  -1.0000  54.5000   C.3       1 RES1  17.7450
    42 17.75   20.5000  -0.5000  54.5000   C.3       1 RES1  17.7450
    43 17.75   20.5000   0.0000  54.5000   C.3       1 RES1  17.7450
    44 17.17   20.0000  -0.5000  55.0000   C.3       1 RES1  17.1670
    45 17.17   20.0000   0.0000  55.0000   C.3       1 RES1  17.1670
    46 17.17   20.0000   0.5000  55.0000   C.3       1 RES1  17.1670
    47 17.89   25.5000  -1.5000  52.0000   C.3       1 RES1  17.8910
    48 17.89   26.0000  -1.5000  52.0000   C.3       1 RES1  17.8910
    49 17.89   26.5000  -1.5000  52.0000   C.3       1 RES1  17.8910
    50 17.56   23.5000   3.0000  52.5000   C.3       1 RES1  17.5630
    51 17.56   23.5000   3.0000  53.0000   C.3       1 RES1  17.5630
    52 17.56   23.5000   3.0000  53.5000   C.3       1 RES1  17.5630
    53 17.90   22.5000  -1.5000  52.5000   C.3       1 RES1  17.9000
    54 17.90   22.5000  -1.5000  53.0000   C.3       1 RES1  17.9000
    55 17.90   22.5000  -1.5000  53.5000   C.3       1 RES1  17.9000
    56 17.90   22.5000  -1.0000  52.5000   C.3       1 RES1  17.9000
    57 17.90   22.5000  -1.0000  53.0000   C.3       1 RES1  17.9000
    58 17.90   22.5000  -1.0000  53.5000   C.3       1 RES1  17.9000
    59 17.90   22.5000  -1.0000  54.0000   C.3       1 RES1  17.9000
    60 17.90   22.5000  -1.0000  54.5000   C.3       1 RES1  17.9000
    61 17.90   22.5000  -1.0000  55.0000   C.3       1 RES1  17.9000
    62 17.90   22.5000  -0.5000  55.0000   C.3       1 RES1  17.9000
    63 17.90   22.5000   0.0000  55.0000   C.3       1 RES1  17.9000
    64 17.16   21.5000   1.5000  53.0000   C.3       1 RES1  17.1620
    65 17.16   21.5000   1.5000  53.5000   C.3       1 RES1  17.1620
    66 17.16   21.5000   1.5000  54.0000   C.3       1 RES1  17.1620
    67 17.08   23.5000  -2.0000  54.0000   C.3       1 RES1  17.0840
    68 17.68   23.5000   2.5000  51.5000   C.3       1 RES1  17.6830
    69 17.10   21.5000   0.5000  51.5000   C.3       1 RES1  17.1050
    70 17.10   22.0000   0.5000  51.5000   C.3       1 RES1  17.1050
    71 17.10   22.5000   0.5000  51.5000   C.3       1 RES1  17.1050
    72 17.20   22.5000   2.0000  52.0000   C.3       1 RES1  17.2040
    73 17.88   20.5000  -1.0000  52.5000   C.3       1 RES1  17.8760
    74 17.88   20.5000  -0.5000  52.5000   C.3       1 RES1  17.8760
    75 17.88   20.5000   0.0000  52.5000   C.3       1 RES1  17.8760
    76 17.88   21.0000  -0.5000  54.5000   C.3       1 RES1  17.8760
    77 17.88   21.0000  -0.5000  55.0000   C.3       1 RES1  17.8760
    78 17.88   21.0000   0.0000  54.5000   C.3       1 RES1  17.8760
    79 17.88   21.0000   0.0000  55.0000   C.3       1 RES1  17.8760
    80 17.88   21.0000   0.5000  54.0000   C.3       1 RES1  17.8760
    81 17.88   21.0000   0.5000  54.5000   C.3       1 RES1  17.8760
    82 17.88   21.0000   0.5000  55.0000   C.3       1 RES1  17.8760
    83 17.88   21.5000  -0.5000  55.0000   C.3       1 RES1  17.8760
    84 17.88   21.5000   0.0000  55.0000   C.3       1 RES1  17.8760
    85 17.88   21.5000   0.5000  55.0000   C.3       1 RES1  17.8760
    86 17.88   22.0000  -0.5000  55.0000   C.3       1 RES1  17.8760
    87 17.88   22.0000   0.0000  55.0000   C.3       1 RES1  17.8760
    88 17.88   22.0000   0.5000  55.0000   C.3       1 RES1  17.8760
    89 17.21   29.0000  -2.5000  52.5000   C.3       1 RES1  17.2060
    90 17.21   29.0000  -2.0000  52.5000   C.3       1 RES1  17.2060
    91 17.21   29.5000  -2.5000  52.5000   C.3       1 RES1  17.2060
    92 17.21   29.5000  -2.0000  52.5000   C.3       1 RES1  17.2060
    93 17.21   30.0000  -2.5000  52.5000   C.3       1 RES1  17.2060
    94 17.21   30.0000  -2.0000  52.5000   C.3       1 RES1  17.2060
    95 17.21   30.0000  -1.5000  52.5000   C.3       1 RES1  17.2060
    96 17.02   21.5000   1.5000  52.0000   C.3       1 RES1  17.0190
    97 17.90   21.5000  -1.5000  52.0000   C.3       1 RES1  17.8970
    98 17.90   21.5000  -1.5000  52.5000   C.3       1 RES1  17.8970
    99 17.90   21.5000  -1.5000  53.0000   C.3       1 RES1  17.8970
   100 17.90   21.5000  -1.0000  52.0000   C.3       1 RES1  17.8970
   101 17.90   21.5000  -1.0000  52.5000   C.3       1 RES1  17.8970
   102 17.90   21.5000  -1.0000  53.0000   C.3       1 RES1  17.8970
   103 17.90   21.5000  -0.5000  52.0000   C.3       1 RES1  17.8970
   104 17.90   21.5000  -0.5000  52.5000   C.3       1 RES1  17.8970
   105 17.90   21.5000  -0.5000  53.0000   C.3       1 RES1  17.8970
   106 17.90   22.0000  -1.5000  52.0000   C.3       1 RES1  17.8970
   107 17.90   22.0000  -1.5000  52.5000   C.3       1 RES1  17.8970
   108 17.90   22.0000  -1.5000  53.0000   C.3       1 RES1  17.8970
   109 17.90   22.0000  -1.0000  52.0000   C.3       1 RES1  17.8970
   110 17.90   22.0000  -1.0000  52.5000   C.3       1 RES1  17.8970
   111 17.90   22.0000  -1.0000  53.0000   C.3       1 RES1  17.8970
   112 17.90   22.0000  -0.5000  53.5000   C.3       1 RES1  17.8970
   113 17.90   22.0000  -0.5000  54.0000   C.3       1 RES1  17.8970
   114 17.90   22.0000   0.0000  53.5000   C.3       1 RES1  17.8970
   115 17.90   22.0000   0.0000  54.0000   C.3       1 RES1  17.8970
   116 17.90   22.0000   0.5000  53.5000   C.3       1 RES1  17.8970
   117 17.90   22.0000   0.5000  54.0000   C.3       1 RES1  17.8970
   118 17.90   22.5000  -1.5000  52.0000   C.3       1 RES1  17.8970
   119 17.90   22.5000  -1.0000  52.0000   C.3       1 RES1  17.8970
   120 17.25   27.5000  -1.0000  54.0000   C.3       1 RES1  17.2460
   121 17.25   27.5000  -0.5000  54.0000   C.3       1 RES1  17.2460
   122 17.25   28.0000   0.0000  54.0000   C.3       1 RES1  17.2460
   123 17.17   26.5000  -2.0000  54.5000   C.3       1 RES1  17.1680
   124 17.15   20.5000   0.5000  52.0000   C.3       1 RES1  17.1460
   125 17.15   21.5000   1.5000  52.5000   C.3       1 RES1  17.1460
   126 17.27   24.0000   4.0000  50.5000   C.3       1 RES1  17.2670
   127 17.27   25.0000   5.0000  48.5000   C.3       1 RES1  17.2670
   128 17.27   25.0000   5.0000  49.0000   C.3       1 RES1  17.2670
   129 17.27   25.0000   5.0000  49.5000   C.3       1 RES1  17.2670
   130 17.27   25.5000   5.0000  48.5000   C.3       1 RES1  17.2670
   131 17.27   25.5000   5.0000  49.0000   C.3       1 RES1  17.2670
   132 17.27   25.5000   5.0000  49.5000   C.3       1 RES1  17.2670
   133 17.27   26.0000   4.0000  48.5000   C.3       1 RES1  17.2670
   134 17.27   26.0000   4.0000  49.0000   C.3       1 RES1  17.2670
   135 17.27   26.0000   4.0000  49.5000   C.3       1 RES1  17.2670
   136 17.27   26.0000   4.5000  48.5000   C.3       1 RES1  17.2670
   137 17.27   26.0000   4.5000  49.0000   C.3       1 RES1  17.2670
   138 17.27   26.0000   4.5000  49.5000   C.3       1 RES1  17.2670
   139 17.27   26.0000   5.0000  48.5000   C.3       1 RES1  17.2670
   140 17.27   26.0000   5.0000  49.0000   C.3       1 RES1  17.2670
   141 17.27   26.0000   5.0000  49.5000   C.3       1 RES1  17.2670
   142 17.31   27.5000   1.0000  55.5000   C.3       1 RES1  17.3080
   143 17.56   23.0000   2.5000  52.5000   C.3       1 RES1  17.5640
   144 17.56   23.0000   2.5000  53.0000   C.3       1 RES1  17.5640
   145 17.56   23.0000   2.5000  53.5000   C.3       1 RES1  17.5640
   146 17.79   23.5000  -1.5000  55.5000   C.3       1 RES1  17.7880
   147 17.08   29.0000   1.0000  54.0000   C.3       1 RES1  17.0850
   148 17.08   29.5000   1.0000  54.0000   C.3       1 RES1  17.0850
   149 17.08   30.0000   1.0000  54.0000   C.3       1 RES1  17.0850
   150 17.21   27.0000  -2.0000  54.0000   C.3       1 RES1  17.2110
   151 17.16   21.0000   1.5000  53.0000   C.3       1 RES1  17.1580
   152 17.16   21.0000   1.5000  53.5000   C.3       1 RES1  17.1580
   153 17.16   21.0000   1.5000  54.0000   C.3       1 RES1  17.1580
   154 17.16   24.0000   3.0000  48.5000   C.3       1 RES1  17.1580
   155 17.16   24.0000   3.5000  48.5000   C.3       1 RES1  17.1580
   156 17.16   24.0000   4.0000  48.5000   C.3       1 RES1  17.1580
   157 17.16   24.5000   3.0000  48.5000   C.3       1 RES1  17.1580
   158 17.16   25.0000   3.0000  48.5000   C.3       1 RES1  17.1580
   159 17.58   27.0000   1.5000  51.5000   C.3       1 RES1  17.5800
   160 17.58   27.0000   1.5000  52.0000   C.3       1 RES1  17.5800
   161 17.58   27.0000   1.5000  52.5000   C.3       1 RES1  17.5800
   162 17.30   30.0000   0.5000  54.0000   C.3       1 RES1  17.3040
   163 17.30   30.5000   0.5000  53.5000   C.3       1 RES1  17.3040
   164 17.30   30.5000   0.5000  54.0000   C.3       1 RES1  17.3040
   165 17.06   27.5000   3.0000  53.0000   C.3       1 RES1  17.0630
   166 17.35   27.5000  -1.0000  52.0000   C.3       1 RES1  17.3550
   167 17.35   27.5000  -1.0000  52.5000   C.3       1 RES1  17.3550
   168 17.35   27.5000  -1.0000  53.0000   C.3       1 RES1  17.3550
   169 17.60   21.0000  -1.0000  52.0000   C.3       1 RES1  17.6010
   170 17.60   21.0000  -0.5000  52.0000   C.3       1 RES1  17.6010
   171 17.60   21.0000   0.0000  52.0000   C.3       1 RES1  17.6010
   172 17.08   28.0000   1.0000  52.5000   C.3       1 RES1  17.0750
   173 17.75   22.5000  -2.5000  53.0000   C.3       1 RES1  17.7460
   174 17.75   22.5000  -2.5000  53.5000   C.3       1 RES1  17.7460
   175 17.75   24.5000  -2.0000  55.5000   C.3       1 RES1  17.7470
   176 17.75   25.0000  -2.0000  55.5000   C.3       1 RES1  17.7470
   177 17.75   25.5000  -2.0000  52.0000   C.3       1 RES1  17.7470
   178 17.75   25.5000  -2.0000  55.5000   C.3       1 RES1  17.7470
   179 17.75   25.5000  -1.5000  55.5000   C.3       1 RES1  17.7470
   180 17.75   25.5000  -1.0000  55.5000   C.3       1 RES1  17.7470
   181 17.75   26.0000  -2.0000  52.0000   C.3       1 RES1  17.7470
   182 17.75   26.5000  -2.0000  52.0000   C.3       1 RES1  17.7470
   183 17.13   23.5000  -2.0000  54.5000   C.3       1 RES1  17.1330
   184 17.13   23.5000  -2.0000  55.0000   C.3       1 RES1  17.1330
   185 17.13   23.5000  -2.0000  55.5000   C.3       1 RES1  17.1330
   186 17.10   27.0000  -1.5000  54.5000   C.3       1 RES1  17.0960
   187 17.10   28.0000   1.0000  55.0000   C.3       1 RES1  17.0960
   188 17.10   28.0000   1.0000  55.5000   C.3       1 RES1  17.0960
   189 17.89   20.5000  -1.0000  53.0000   C.3       1 RES1  17.8930
   190 17.89   20.5000  -1.0000  53.5000   C.3       1 RES1  17.8930
   191 17.89   20.5000  -1.0000  54.0000   C.3       1 RES1  17.8930
   192 17.89   20.5000  -0.5000  53.0000   C.3       1 RES1  17.8930
   193 17.89   20.5000  -0.5000  53.5000   C.3       1 RES1  17.8930
   194 17.89   20.5000  -0.5000  54.0000   C.3       1 RES1  17.8930
   195 17.89   20.5000   0.0000  53.0000   C.3       1 RES1  17.8930
   196 17.89   20.5000   0.0000  53.5000   C.3       1 RES1  17.8930
   197 17.89   20.5000   0.0000  54.0000   C.3       1 RES1  17.8930
   198 17.89   21.0000  -1.0000  53.0000   C.3       1 RES1  17.8930
   199 17.89   21.0000  -1.0000  53.5000   C.3       1 RES1  17.8930
   200 17.89   21.0000  -1.0000  54.0000   C.3       1 RES1  17.8930
   201 17.89   21.0000  -0.5000  53.0000   C.3       1 RES1  17.8930
   202 17.89   21.0000  -0.5000  53.5000   C.3       1 RES1  17.8930
   203 17.89   21.0000  -0.5000  54.0000   C.3       1 RES1  17.8930
   204 17.89   21.0000   0.0000  53.0000   C.3       1 RES1  17.8930
   205 17.89   21.0000   0.0000  53.5000   C.3       1 RES1  17.8930
   206 17.89   21.0000   0.0000  54.0000   C.3       1 RES1  17.8930
   207 17.89   22.0000   1.0000  53.0000   C.3       1 RES1  17.8930
   208 17.89   22.0000   1.0000  53.5000   C.3       1 RES1  17.8930
   209 17.89   22.0000   1.0000  54.0000   C.3       1 RES1  17.8930
   210 17.87   23.0000   0.5000  55.0000   C.3       1 RES1  17.8670
   211 17.34   24.0000   3.0000  51.5000   C.3       1 RES1  17.3380
   212 17.07   24.0000  -1.5000  56.5000   C.3       1 RES1  17.0670
   213 17.07   24.0000  -1.0000  56.5000   C.3       1 RES1  17.0670
   214 17.07   24.0000  -0.5000  56.5000   C.3       1 RES1  17.0670
   215 17.89   22.0000  -1.5000  53.5000   C.3       1 RES1  17.8880
   216 17.81   23.0000  -1.5000  52.0000   C.3       1 RES1  17.8140
   217 17.81   23.0000  -1.0000  52.0000   C.3       1 RES1  17.8140
   218 17.81   22.0000   1.0000  52.5000   C.3       1 RES1  17.8100
   219 17.28   22.5000   2.0000  52.5000   C.3       1 RES1  17.2840
   220 17.28   22.5000   2.0000  53.0000   C.3       1 RES1  17.2840
   221 17.28   22.5000   2.0000  53.5000   C.3       1 RES1  17.2840
   222 17.08   28.5000  -2.0000  52.5000   C.3       1 RES1  17.0810
   223 17.33   28.5000  -0.5000  52.5000   C.3       1 RES1  17.3340
   224 17.33   28.5000   0.0000  52.5000   C.3       1 RES1  17.3340
   225 17.33   28.5000   0.0000  55.0000   C.3       1 RES1  17.3340
   226 17.33   28.5000   0.5000  52.5000   C.3       1 RES1  17.3340
   227 17.33   28.5000   0.5000  53.0000   C.3       1 RES1  17.3340
   228 17.33   28.5000   0.5000  53.5000   C.3       1 RES1  17.3340
   229 17.33   29.0000  -0.5000  52.5000   C.3       1 RES1  17.3340
   230 17.33   29.0000   0.0000  52.5000   C.3       1 RES1  17.3340
   231 17.33   29.0000   0.0000  55.0000   C.3       1 RES1  17.3340
   232 17.33   29.5000  -0.5000  52.5000   C.3       1 RES1  17.3340
   233 17.33   29.5000   0.0000  52.5000   C.3       1 RES1  17.3340
   234 17.33   29.5000   0.0000  55.0000   C.3       1 RES1  17.3340
   235 17.72   22.5000   1.5000  52.5000   C.3       1 RES1  17.7170
   236 17.81   21.0000  -2.5000  53.0000   C.3       1 RES1  17.8050
   237 17.81   21.0000  -2.5000  53.5000   C.3       1 RES1  17.8050
   238 17.81   21.0000  -2.0000  53.0000   C.3       1 RES1  17.8050
   239 17.81   21.0000  -2.0000  53.5000   C.3       1 RES1  17.8050
   240 17.81   21.5000  -2.5000  53.0000   C.3       1 RES1  17.8050
   241 17.81   21.5000  -2.5000  53.5000   C.3       1 RES1  17.8050
   242 17.81   22.0000  -2.5000  53.0000   C.3       1 RES1  17.8050
   243 17.81   22.0000  -2.5000  53.5000   C.3       1 RES1  17.8050
   244 17.63   27.0000   0.0000  53.0000   C.3       1 RES1  17.6290
   245 17.63   27.0000   0.5000  53.0000   C.3       1 RES1  17.6290
   246 17.63   27.0000   1.0000  52.0000   C.3       1 RES1  17.6290
   247 17.63   27.0000   1.0000  52.5000   C.3       1 RES1  17.6290
   248 17.10   24.5000   3.5000  51.5000   C.3       1 RES1  17.1020
   249 17.83   24.0000   3.0000  52.0000   C.3       1 RES1  17.8260
   250 17.75   24.0000   2.5000  50.0000   C.3       1 RES1  17.7480
   251 17.75   24.0000   2.5000  50.5000   C.3       1 RES1  17.7480
   252 17.75   24.0000   3.0000  50.0000   C.3       1 RES1  17.7480
   253 17.75   24.0000   3.0000  50.5000   C.3       1 RES1  17.7480
   254 17.75   24.0000   3.0000  51.0000   C.3       1 RES1  17.7480
   255 17.75   24.0000   3.5000  50.0000   C.3       1 RES1  17.7480
   256 17.75   24.0000   3.5000  50.5000   C.3       1 RES1  17.7480
   257 17.75   24.0000   3.5000  51.0000   C.3       1 RES1  17.7480
   258 17.75   24.5000   2.5000  50.0000   C.3       1 RES1  17.7480
   259 17.75   24.5000   2.5000  50.5000   C.3       1 RES1  17.7480
   260 17.75   24.5000   3.0000  50.0000   C.3       1 RES1  17.7480
   261 17.75   24.5000   3.0000  50.5000   C.3       1 RES1  17.7480
   262 17.75   24.5000   3.0000  51.0000   C.3       1 RES1  17.7480
   263 17.75   24.5000   3.5000  48.5000   C.3       1 RES1  17.7480
   264 17.75   24.5000   3.5000  49.0000   C.3       1 RES1  17.7480
   265 17.75   24.5000   3.5000  49.5000   C.3       1 RES1  17.7480
   266 17.75   24.5000   3.5000  50.0000   C.3       1 RES1  17.7480
   267 17.75   24.5000   3.5000  50.5000   C.3       1 RES1  17.7480
   268 17.75   24.5000   3.5000  51.0000   C.3       1 RES1  17.7480
   269 17.75   24.5000   4.0000  48.5000   C.3       1 RES1  17.7480
   270 17.75   24.5000   4.0000  49.0000   C.3       1 RES1  17.7480
   271 17.75   24.5000   4.0000  49.5000   C.3       1 RES1  17.7480
   272 17.75   24.5000   4.5000  48.5000   C.3       1 RES1  17.7480
   273 17.75   24.5000   4.5000  49.0000   C.3       1 RES1  17.7480
   274 17.75   24.5000   4.5000  49.5000   C.3       1 RES1  17.7480
   275 17.75   25.0000   2.5000  50.0000   C.3       1 RES1  17.7480
   276 17.75   25.0000   3.0000  50.0000   C.3       1 RES1  17.7480
   277 17.75   25.0000   3.0000  50.5000   C.3       1 RES1  17.7480
   278 17.75   25.0000   3.0000  51.0000   C.3       1 RES1  17.7480
   279 17.75   25.0000   3.5000  48.5000   C.3       1 RES1  17.7480
   280 17.75   25.0000   3.5000  49.0000   C.3       1 RES1  17.7480
   281 17.75   25.0000   3.5000  49.5000   C.3       1 RES1  17.7480
   282 17.75   25.0000   3.5000  50.0000   C.3       1 RES1  17.7480
   283 17.75   25.0000   3.5000  50.5000   C.3       1 RES1  17.7480
   284 17.75   25.0000   3.5000  51.0000   C.3       1 RES1  17.7480
   285 17.75   25.0000   4.0000  48.5000   C.3       1 RES1  17.7480
   286 17.75   25.0000   4.0000  49.0000   C.3       1 RES1  17.7480
   287 17.75   25.0000   4.0000  49.5000   C.3       1 RES1  17.7480
   288 17.75   25.0000   4.5000  48.5000   C.3       1 RES1  17.7480
   289 17.75   25.0000   4.5000  49.0000   C.3       1 RES1  17.7480
   290 17.75   25.0000   4.5000  49.5000   C.3       1 RES1  17.7480
   291 17.75   25.5000   2.5000  49.0000   C.3       1 RES1  17.7480
   292 17.75   25.5000   2.5000  49.5000   C.3       1 RES1  17.7480
   293 17.75   25.5000   2.5000  50.0000   C.3       1 RES1  17.7480
   294 17.75   25.5000   3.0000  49.0000   C.3       1 RES1  17.7480
   295 17.75   25.5000   3.0000  49.5000   C.3       1 RES1  17.7480
   296 17.75   25.5000   3.0000  50.0000   C.3       1 RES1  17.7480
   297 17.75   25.5000   3.5000  48.5000   C.3       1 RES1  17.7480
   298 17.75   25.5000   3.5000  49.0000   C.3       1 RES1  17.7480
   299 17.75   25.5000   3.5000  49.5000   C.3       1 RES1  17.7480
   300 17.75   25.5000   3.5000  50.0000   C.3       1 RES1  17.7480
   301 17.75   25.5000   4.0000  48.5000   C.3       1 RES1  17.7480
   302 17.75   25.5000   4.0000  49.0000   C.3       1 RES1  17.7480
   303 17.75   25.5000   4.0000  49.5000   C.3       1 RES1  17.7480
   304 17.75   25.5000   4.5000  48.5000   C.3       1 RES1  17.7480
   305 17.75   25.5000   4.5000  49.0000   C.3       1 RES1  17.7480
   306 17.75   25.5000   4.5000  49.5000   C.3       1 RES1  17.7480
   307 17.75   26.0000   2.5000  49.0000   C.3       1 RES1  17.7480
   308 17.75   26.0000   2.5000  49.5000   C.3       1 RES1  17.7480
   309 17.75   26.0000   2.5000  50.0000   C.3       1 RES1  17.7480
   310 17.75   26.0000   3.0000  49.0000   C.3       1 RES1  17.7480
   311 17.75   26.0000   3.0000  49.5000   C.3       1 RES1  17.7480
   312 17.75   26.0000   3.0000  50.0000   C.3       1 RES1  17.7480
   313 17.75   26.0000   3.5000  49.0000   C.3       1 RES1  17.7480
   314 17.75   26.0000   3.5000  49.5000   C.3       1 RES1  17.7480
   315 17.75   26.0000   3.5000  50.0000   C.3       1 RES1  17.7480
   316 17.75   26.5000   2.5000  49.0000   C.3       1 RES1  17.7480
   317 17.75   26.5000   2.5000  49.5000   C.3       1 RES1  17.7480
   318 17.75   26.5000   2.5000  50.0000   C.3       1 RES1  17.7480
   319 17.75   26.5000   3.0000  49.0000   C.3       1 RES1  17.7480
   320 17.75   26.5000   3.0000  49.5000   C.3       1 RES1  17.7480
   321 17.75   26.5000   3.0000  50.0000   C.3       1 RES1  17.7480
   322 17.75   26.5000   3.5000  49.0000   C.3       1 RES1  17.7480
   323 17.75   26.5000   3.5000  49.5000   C.3       1 RES1  17.7480
   324 17.75   26.5000   3.5000  50.0000   C.3       1 RES1  17.7480
   325 17.19   21.5000  -1.0000  51.5000   C.3       1 RES1  17.1940
   326 17.19   21.5000  -0.5000  51.5000   C.3       1 RES1  17.1940
   327 17.19   21.5000   0.0000  51.5000   C.3       1 RES1  17.1940
   328 17.19   22.0000  -1.0000  51.5000   C.3       1 RES1  17.1940
   329 17.19   22.0000  -0.5000  51.5000   C.3       1 RES1  17.1940
   330 17.19   22.0000   0.0000  51.5000   C.3       1 RES1  17.1940
   331 17.19   22.5000  -1.0000  51.5000   C.3       1 RES1  17.1940
   332 17.19   22.5000  -0.5000  51.5000   C.3       1 RES1  17.1940
   333 17.19   22.5000   0.0000  51.5000   C.3       1 RES1  17.1940
   334 17.72   23.0000   2.0000  52.0000   C.3       1 RES1  17.7160
   335 17.11   28.0000   1.0000  54.5000   C.3       1 RES1  17.1060
   336 17.11   28.0000   1.5000  54.5000   C.3       1 RES1  17.1060
   337 17.74   23.0000   2.0000  54.0000   C.3       1 RES1  17.7430
   338 17.74   24.5000   3.0000  51.5000   C.3       1 RES1  17.7430
   339 17.74   25.0000   3.0000  51.5000   C.3       1 RES1  17.7430
   340 17.31   28.0000   0.5000  52.5000   C.3       1 RES1  17.3100
   341 17.31   28.5000   0.5000  54.0000   C.3       1 RES1  17.3100
   342 17.31   28.5000   0.5000  54.5000   C.3       1 RES1  17.3100
   343 17.31   28.5000   0.5000  55.0000   C.3       1 RES1  17.3100
   344 17.31   29.0000   0.5000  54.0000   C.3       1 RES1  17.3100
   345 17.31   29.0000   0.5000  54.5000   C.3       1 RES1  17.3100
   346 17.31   29.0000   0.5000  55.0000   C.3       1 RES1  17.3100
   347 17.31   29.5000   0.5000  54.0000   C.3       1 RES1  17.3100
   348 17.31   29.5000   0.5000  54.5000   C.3       1 RES1  17.3100
   349 17.31   29.5000   0.5000  55.0000   C.3       1 RES1  17.3100
   350 17.88   21.0000  -1.0000  52.5000   C.3       1 RES1  17.8840
   351 17.88   21.0000  -0.5000  52.5000   C.3       1 RES1  17.8840
   352 17.88   21.0000   0.0000  52.5000   C.3       1 RES1  17.8840
   353 17.88   22.5000  -2.0000  52.5000   C.3       1 RES1  17.8840
   354 17.88   22.5000  -2.0000  53.0000   C.3       1 RES1  17.8840
   355 17.88   22.5000  -2.0000  53.5000   C.3       1 RES1  17.8840
   356 17.88   23.0000  -2.0000  52.5000   C.3       1 RES1  17.8840
   357 17.88   23.0000  -2.0000  53.0000   C.3       1 RES1  17.8840
   358 17.88   23.0000  -2.0000  53.5000   C.3       1 RES1  17.8840
   359 17.88   23.5000  -2.0000  52.5000   C.3       1 RES1  17.8840
   360 17.88   23.5000  -2.0000  53.0000   C.3       1 RES1  17.8840
   361 17.88   23.5000  -2.0000  53.5000   C.3       1 RES1  17.8840
   362 17.88   25.5000   3.0000  51.0000   C.3       1 RES1  17.8840
   363 17.88   25.5000   3.0000  51.5000   C.3       1 RES1  17.8840
   364 17.88   26.0000   3.0000  51.0000   C.3       1 RES1  17.8840
   365 17.88   26.0000   3.0000  51.5000   C.3       1 RES1  17.8840
   366 17.88   26.0000   3.0000  52.0000   C.3       1 RES1  17.8840
   367 17.88   26.5000   3.0000  51.0000   C.3       1 RES1  17.8840
   368 17.88   26.5000   3.0000  51.5000   C.3       1 RES1  17.8840
   369 17.88   26.5000   3.0000  52.0000   C.3       1 RES1  17.8840
   370 17.39   20.0000   0.5000  53.5000   C.3       1 RES1  17.3890
   371 17.39   20.0000   0.5000  54.0000   C.3       1 RES1  17.3890
   372 17.39   20.0000   0.5000  54.5000   C.3       1 RES1  17.3890
   373 17.38   24.0000   2.5000  49.5000   C.3       1 RES1  17.3840
   374 17.38   24.5000   2.5000  49.5000   C.3       1 RES1  17.3840
   375 17.38   25.0000   2.5000  49.5000   C.3       1 RES1  17.3840
   376 17.86   22.0000  -2.0000  52.5000   C.3       1 RES1  17.8630
   377 17.86   22.0000  -2.0000  53.0000   C.3       1 RES1  17.8630
   378 17.86   22.0000  -2.0000  53.5000   C.3       1 RES1  17.8630
   379 17.86   27.0000   3.0000  53.0000   C.3       1 RES1  17.8630
   380 17.16   27.5000  -1.0000  51.5000   C.3       1 RES1  17.1600
   381 17.39   30.0000   0.0000  53.0000   C.3       1 RES1  17.3940
   382 17.39   30.0000   0.0000  53.5000   C.3       1 RES1  17.3940
   383 17.39   30.0000   0.0000  54.0000   C.3       1 RES1  17.3940
   384 17.39   30.5000   0.0000  53.0000   C.3       1 RES1  17.3940
   385 17.39   30.5000   0.0000  53.5000   C.3       1 RES1  17.3940
   386 17.39   30.5000   0.0000  54.0000   C.3       1 RES1  17.3940
   387 17.39   31.0000   0.0000  53.0000   C.3       1 RES1  17.3940
   388 17.39   31.0000   0.0000  53.5000   C.3       1 RES1  17.3940
   389 17.39   31.0000   0.0000  54.0000   C.3       1 RES1  17.3940
   390 17.63   27.0000  -0.5000  51.5000   C.3       1 RES1  17.6340
   391 17.63   27.0000  -0.5000  52.0000   C.3       1 RES1  17.6340
   392 17.63   27.0000  -0.5000  52.5000   C.3       1 RES1  17.6340
   393 17.63   27.0000   0.0000  51.5000   C.3       1 RES1  17.6340
   394 17.63   27.0000   0.0000  52.0000   C.3       1 RES1  17.6340
   395 17.63   27.0000   0.0000  52.5000   C.3       1 RES1  17.6340
   396 17.63   27.0000   0.5000  51.5000   C.3       1 RES1  17.6340
   397 17.63   27.0000   0.5000  52.0000   C.3       1 RES1  17.6340
   398 17.63   27.0000   0.5000  52.5000   C.3       1 RES1  17.6340
   399 17.04   30.0000   0.0000  55.0000   C.3       1 RES1  17.0370
   400 17.04   30.0000   0.5000  54.5000   C.3       1 RES1  17.0370
   401 17.04   30.0000   0.5000  55.0000   C.3       1 RES1  17.0370
   402 17.04   30.0000   1.0000  54.5000   C.3       1 RES1  17.0370
   403 17.04   30.0000   1.0000  55.0000   C.3       1 RES1  17.0370
   404 17.87   23.5000  -1.5000  54.5000   C.3       1 RES1  17.8660
   405 17.87   23.5000  -1.5000  55.0000   C.3       1 RES1  17.8660
   406 17.28   20.0000   0.5000  52.5000   C.3       1 RES1  17.2850
   407 17.28   20.0000   0.5000  53.0000   C.3       1 RES1  17.2850
   408 17.66   21.5000   0.5000  52.0000   C.3       1 RES1  17.6550
   409 17.66   24.0000   3.0000  49.0000   C.3       1 RES1  17.6550
   410 17.66   24.0000   3.0000  49.5000   C.3       1 RES1  17.6550
   411 17.66   24.0000   3.5000  49.0000   C.3       1 RES1  17.6550
   412 17.66   24.0000   3.5000  49.5000   C.3       1 RES1  17.6550
   413 17.66   24.0000   4.0000  49.0000   C.3       1 RES1  17.6550
   414 17.66   24.0000   4.0000  49.5000   C.3       1 RES1  17.6550
   415 17.66   24.0000   4.0000  50.0000   C.3       1 RES1  17.6550
   416 17.66   24.5000   3.0000  49.0000   C.3       1 RES1  17.6550
   417 17.66   24.5000   3.0000  49.5000   C.3       1 RES1  17.6550
   418 17.66   24.5000   4.0000  50.0000   C.3       1 RES1  17.6550
   419 17.66   25.0000   3.0000  49.0000   C.3       1 RES1  17.6550
   420 17.66   25.0000   3.0000  49.5000   C.3       1 RES1  17.6550
   421 17.66   25.0000   4.0000  50.0000   C.3       1 RES1  17.6550
   422 17.66   25.5000   3.0000  50.5000   C.3       1 RES1  17.6550
   423 17.66   25.5000   3.5000  50.5000   C.3       1 RES1  17.6550
   424 17.66   25.5000   3.5000  51.0000   C.3       1 RES1  17.6550
   425 17.33   27.5000  -1.5000  52.0000   C.3       1 RES1  17.3270
   426 17.33   27.5000  -1.5000  52.5000   C.3       1 RES1  17.3270
   427 17.33   27.5000  -1.5000  53.0000   C.3       1 RES1  17.3270
   428 17.33   28.0000  -1.5000  52.0000   C.3       1 RES1  17.3270
   429 17.33   28.0000  -1.5000  52.5000   C.3       1 RES1  17.3270
   430 17.33   28.0000  -1.0000  52.0000   C.3       1 RES1  17.3270
   431 17.33   28.0000  -0.5000  52.0000   C.3       1 RES1  17.3270
   432 17.89   22.0000   0.5000  54.5000   C.3       1 RES1  17.8940
   433 17.05   27.5000  -1.5000  54.5000   C.3       1 RES1  17.0510
   434 17.22   24.0000   3.5000  52.0000   C.3       1 RES1  17.2230
   435 17.22   24.5000   3.5000  52.0000   C.3       1 RES1  17.2230
   436 17.02   30.0000  -0.5000  55.0000   C.3       1 RES1  17.0230
   437 17.02   31.0000   0.5000  53.0000   C.3       1 RES1  17.0230
   438 17.02   31.0000   0.5000  53.5000   C.3       1 RES1  17.0230
   439 17.02   31.0000   0.5000  54.0000   C.3       1 RES1  17.0230
   440 17.20   27.5000  -1.5000  54.0000   C.3       1 RES1  17.1970
   441 17.27   19.5000   0.0000  53.0000   C.3       1 RES1  17.2750
   442 17.46   27.5000   0.0000  54.0000   C.3       1 RES1  17.4590
   443 17.37   27.5000   1.5000  53.0000   C.3       1 RES1  17.3710
   444 17.37   27.5000   2.0000  53.0000   C.3       1 RES1  17.3710
   445 17.37   27.5000   2.5000  53.0000   C.3       1 RES1  17.3710
   446 17.32   22.0000   1.5000  52.5000   C.3       1 RES1  17.3170
   447 17.32   22.0000   1.5000  53.0000   C.3       1 RES1  17.3170
   448 17.32   22.0000   1.5000  53.5000   C.3       1 RES1  17.3170
   449 17.11   22.0000   1.5000  54.5000   C.3       1 RES1  17.1140
   450 17.74   20.5000  -1.5000  53.0000   C.3       1 RES1  17.7370
   451 17.74   20.5000  -1.5000  53.5000   C.3       1 RES1  17.7370
   452 17.90   26.5000  -1.5000  52.5000   C.3       1 RES1  17.8990
   453 17.90   26.5000  -1.5000  53.0000   C.3       1 RES1  17.8990
   454 17.90   26.5000  -1.5000  53.5000   C.3       1 RES1  17.8990
   455 17.39   21.0000   0.5000  52.0000   C.3       1 RES1  17.3850
   456 17.34   27.5000  -1.0000  53.5000   C.3       1 RES1  17.3450
   457 17.34   28.0000  -1.0000  52.5000   C.3       1 RES1  17.3450
   458 17.34   28.0000  -0.5000  52.5000   C.3       1 RES1  17.3450
   459 17.34   28.0000  -0.5000  53.0000   C.3       1 RES1  17.3450
   460 17.34   28.0000   0.0000  52.5000   C.3       1 RES1  17.3450
   461 17.34   28.0000   0.0000  53.0000   C.3       1 RES1  17.3450
   462 17.34   28.0000   0.0000  53.5000   C.3       1 RES1  17.3450
   463 17.81   21.0000  -1.5000  52.5000   C.3       1 RES1  17.8070
   464 17.40   28.5000  -0.5000  53.0000   C.3       1 RES1  17.3990
   465 17.40   28.5000   0.0000  53.0000   C.3       1 RES1  17.3990
   466 17.40   29.0000  -0.5000  53.0000   C.3       1 RES1  17.3990
   467 17.40   29.0000   0.0000  53.0000   C.3       1 RES1  17.3990
   468 17.40   29.5000  -1.0000  53.0000   C.3       1 RES1  17.3990
   469 17.40   29.5000  -0.5000  53.0000   C.3       1 RES1  17.3990
   470 17.40   29.5000   0.0000  53.0000   C.3       1 RES1  17.3990
   471 17.40   30.0000  -1.0000  53.0000   C.3       1 RES1  17.3990
   472 17.40   30.0000  -0.5000  53.0000   C.3       1 RES1  17.3990
   473 17.40   30.5000  -1.5000  53.0000   C.3       1 RES1  17.3990
   474 17.40   30.5000  -1.0000  53.0000   C.3       1 RES1  17.3990
   475 17.40   30.5000  -0.5000  53.0000   C.3       1 RES1  17.3990
   476 17.40   31.0000  -1.5000  53.0000   C.3       1 RES1  17.3990
   477 17.40   31.0000  -1.0000  53.0000   C.3       1 RES1  17.3990
   478 17.40   31.0000  -0.5000  53.0000   C.3       1 RES1  17.3990
   479 17.43   20.5000   1.0000  53.0000   C.3       1 RES1  17.4270
   480 17.43   20.5000   1.0000  53.5000   C.3       1 RES1  17.4270
   481 17.43   20.5000   1.0000  54.0000   C.3       1 RES1  17.4270
   482 17.43   21.0000   1.0000  53.0000   C.3       1 RES1  17.4270
   483 17.49   20.5000  -2.0000  53.0000   C.3       1 RES1  17.4860
   484 17.49   20.5000  -2.0000  53.5000   C.3       1 RES1  17.4860
   485 17.34   19.5000  -1.0000  53.5000   C.3       1 RES1  17.3420
   486 17.34   19.5000  -1.0000  54.0000   C.3       1 RES1  17.3420
   487 17.34   19.5000  -1.0000  54.5000   C.3       1 RES1  17.3420
   488 17.34   19.5000  -0.5000  53.5000   C.3       1 RES1  17.3420
   489 17.34   19.5000  -0.5000  54.0000   C.3       1 RES1  17.3420
   490 17.34   19.5000  -0.5000  54.5000   C.3       1 RES1  17.3420
   491 17.34   19.5000   0.0000  53.5000   C.3       1 RES1  17.3420
   492 17.34   19.5000   0.0000  54.0000   C.3       1 RES1  17.3420
   493 17.34   19.5000   0.0000  54.5000   C.3       1 RES1  17.3420
   494 17.47   27.5000   1.0000  55.0000   C.3       1 RES1  17.4690
   495 17.47   27.5000   1.5000  55.0000   C.3       1 RES1  17.4690
   496 17.05   21.0000  -1.0000  51.5000   C.3       1 RES1  17.0520
   497 17.05   21.0000  -0.5000  51.5000   C.3       1 RES1  17.0520
   498 17.05   21.0000   0.0000  51.5000   C.3       1 RES1  17.0520
   499 17.20   26.0000   3.5000  50.5000   C.3       1 RES1  17.2050
   500 17.62   27.0000   1.0000  51.5000   C.3       1 RES1  17.6170
   501 17.20   26.5000  -1.5000  54.5000   C.3       1 RES1  17.1960
   502 17.30   28.5000  -1.0000  52.5000   C.3       1 RES1  17.2970
   503 17.30   29.0000  -1.0000  52.5000   C.3       1 RES1  17.2970
   504 17.86   21.0000  -1.5000  53.0000   C.3       1 RES1  17.8580
   505 17.86   21.0000  -1.5000  53.5000   C.3       1 RES1  17.8580
   506 17.22   28.5000  -1.5000  52.5000   C.3       1 RES1  17.2190
   507 17.22   29.0000  -1.5000  52.5000   C.3       1 RES1  17.2190
   508 17.22   29.5000  -1.5000  52.5000   C.3       1 RES1  17.2190
   509 17.22   29.5000  -1.0000  52.5000   C.3       1 RES1  17.2190
   510 17.22   30.5000  -2.0000  53.5000   C.3       1 RES1  17.2190
   511 17.22   30.5000  -2.0000  54.0000   C.3       1 RES1  17.2190
   512 17.22   30.5000  -2.0000  54.5000   C.3       1 RES1  17.2190
   513 17.62   21.5000   1.0000  54.5000   C.3       1 RES1  17.6200
   514 17.36   24.5000   4.0000  50.5000   C.3       1 RES1  17.3650
   515 17.36   24.5000   4.0000  51.0000   C.3       1 RES1  17.3650
   516 17.36   25.0000   4.0000  50.5000   C.3       1 RES1  17.3650
   517 17.36   25.0000   4.0000  51.0000   C.3       1 RES1  17.3650
   518 17.36   25.5000   4.0000  50.0000   C.3       1 RES1  17.3650
   519 17.36   25.5000   4.0000  50.5000   C.3       1 RES1  17.3650
   520 17.36   25.5000   4.0000  51.0000   C.3       1 RES1  17.3650
   521 17.42   24.0000   3.5000  52.5000   C.3       1 RES1  17.4230
   522 17.42   24.0000   3.5000  53.0000   C.3       1 RES1  17.4230
   523 17.42   24.0000   3.5000  53.5000   C.3       1 RES1  17.4230
   524 17.01   22.5000   2.5000  52.5000   C.3       1 RES1  17.0110
   525 17.01   22.5000   2.5000  53.0000   C.3       1 RES1  17.0110
   526 17.01   22.5000   2.5000  53.5000   C.3       1 RES1  17.0110
   527 17.08   28.5000   1.0000  54.0000   C.3       1 RES1  17.0760
   528 17.08   28.5000   1.0000  54.5000   C.3       1 RES1  17.0760
   529 17.08   28.5000   1.0000  55.0000   C.3       1 RES1  17.0760
   530 17.08   29.0000   1.0000  54.5000   C.3       1 RES1  17.0760
   531 17.08   29.0000   1.0000  55.0000   C.3       1 RES1  17.0760
   532 17.08   29.5000   1.0000  54.5000   C.3       1 RES1  17.0760
   533 17.08   29.5000   1.0000  55.0000   C.3       1 RES1  17.0760
   534 17.88   23.5000  -1.0000  55.5000   C.3       1 RES1  17.8810
   535 17.88   23.5000  -0.5000  55.5000   C.3       1 RES1  17.8810
   536 17.88   23.5000   0.0000  55.5000   C.3       1 RES1  17.8810
   537 17.88   24.0000  -1.5000  54.5000   C.3       1 RES1  17.8810
   538 17.88   24.0000  -1.5000  55.0000   C.3       1 RES1  17.8810
   539 17.88   24.0000  -1.5000  55.5000   C.3       1 RES1  17.8810
   540 17.88   24.0000  -1.0000  55.5000   C.3       1 RES1  17.8810
   541 17.88   24.0000  -0.5000  55.5000   C.3       1 RES1  17.8810
   542 17.88   24.0000   0.0000  55.5000   C.3       1 RES1  17.8810
   543 17.88   24.5000  -1.5000  54.5000   C.3       1 RES1  17.8810
   544 17.88   24.5000  -1.5000  55.0000   C.3       1 RES1  17.8810
   545 17.88   24.5000  -1.5000  55.5000   C.3       1 RES1  17.8810
   546 17.88   24.5000  -1.0000  55.5000   C.3       1 RES1  17.8810
   547 17.88   24.5000  -0.5000  55.5000   C.3       1 RES1  17.8810
   548 17.88   24.5000   0.0000  55.5000   C.3       1 RES1  17.8810
   549 17.88   25.0000  -1.5000  54.5000   C.3       1 RES1  17.8810
   550 17.88   25.0000  -1.5000  55.0000   C.3       1 RES1  17.8810
   551 17.88   25.0000  -1.5000  55.5000   C.3       1 RES1  17.8810
   552 17.88   25.0000  -1.0000  55.0000   C.3       1 RES1  17.8810
   553 17.88   25.0000  -1.0000  55.5000   C.3       1 RES1  17.8810
   554 17.49   27.5000   0.5000  53.5000   C.3       1 RES1  17.4880
   555 17.49   27.5000   0.5000  54.0000   C.3       1 RES1  17.4880
   556 17.57   20.5000   0.5000  52.5000   C.3       1 RES1  17.5670
   557 17.57   20.5000   0.5000  53.0000   C.3       1 RES1  17.5670
   558 17.57   20.5000   0.5000  53.5000   C.3       1 RES1  17.5670
   559 17.65   20.0000  -1.0000  53.0000   C.3       1 RES1  17.6520
   560 17.65   20.0000  -1.0000  53.5000   C.3       1 RES1  17.6520
   561 17.65   20.0000  -1.0000  54.0000   C.3       1 RES1  17.6520
   562 17.65   20.0000  -0.5000  53.0000   C.3       1 RES1  17.6520
   563 17.65   20.0000  -0.5000  53.5000   C.3       1 RES1  17.6520
   564 17.65   20.0000  -0.5000  54.0000   C.3       1 RES1  17.6520
   565 17.65   20.0000   0.0000  53.0000   C.3       1 RES1  17.6520
   566 17.65   20.0000   0.0000  53.5000   C.3       1 RES1  17.6520
   567 17.65   20.0000   0.0000  54.0000   C.3       1 RES1  17.6520
   568 17.32   28.0000   2.0000  53.0000   C.3       1 RES1  17.3240
   569 17.27   26.5000  -3.0000  52.5000   C.3       1 RES1  17.2660
   570 17.27   26.5000  -3.0000  53.0000   C.3       1 RES1  17.2660
   571 17.27   26.5000  -3.0000  53.5000   C.3       1 RES1  17.2660
   572 17.27   26.5000  -2.5000  53.5000   C.3       1 RES1  17.2660
   573 17.27   27.0000  -3.0000  52.5000   C.3       1 RES1  17.2660
   574 17.27   27.0000  -3.0000  53.0000   C.3       1 RES1  17.2660
   575 17.27   27.0000  -3.0000  53.5000   C.3       1 RES1  17.2660
   576 17.27   27.0000  -2.5000  53.5000   C.3       1 RES1  17.2660
   577 17.27   27.5000  -3.0000  52.5000   C.3       1 RES1  17.2660
   578 17.27   27.5000  -3.0000  53.0000   C.3       1 RES1  17.2660
   579 17.27   27.5000  -3.0000  53.5000   C.3       1 RES1  17.2660
   580 17.27   27.5000  -2.5000  52.5000   C.3       1 RES1  17.2660
   581 17.27   27.5000  -2.5000  53.0000   C.3       1 RES1  17.2660
   582 17.27   27.5000  -2.5000  53.5000   C.3       1 RES1  17.2660
   583 17.27   27.5000  -2.0000  52.5000   C.3       1 RES1  17.2660
   584 17.27   27.5000  -2.0000  53.0000   C.3       1 RES1  17.2660
   585 17.27   27.5000  -2.0000  53.5000   C.3       1 RES1  17.2660
   586 17.27   27.5000  -1.5000  53.5000   C.3       1 RES1  17.2660
   587 17.09   20.0000   1.0000  53.5000   C.3       1 RES1  17.0950
   588 17.09   20.0000   1.0000  54.0000   C.3       1 RES1  17.0950
   589 17.09   20.0000   1.0000  54.5000   C.3       1 RES1  17.0950
   590 17.09   26.5000  -1.5000  55.0000   C.3       1 RES1  17.0950
   591 17.05   24.5000   3.5000  54.0000   C.3       1 RES1  17.0480
   592 17.64   28.5000   0.0000  53.5000   C.3       1 RES1  17.6430
   593 17.64   28.5000   0.0000  54.0000   C.3       1 RES1  17.6430
   594 17.64   28.5000   0.0000  54.5000   C.3       1 RES1  17.6430
   595 17.64   29.0000  -2.5000  53.0000   C.3       1 RES1  17.6430
   596 17.64   29.0000   0.0000  53.5000   C.3       1 RES1  17.6430
   597 17.64   29.0000   0.0000  54.0000   C.3       1 RES1  17.6430
   598 17.64   29.0000   0.0000  54.5000   C.3       1 RES1  17.6430
   599 17.64   29.5000  -2.5000  53.0000   C.3       1 RES1  17.6430
   600 17.64   29.5000  -2.0000  53.0000   C.3       1 RES1  17.6430
   601 17.64   29.5000  -1.5000  53.0000   C.3       1 RES1  17.6430
   602 17.64   29.5000   0.0000  53.5000   C.3       1 RES1  17.6430
   603 17.64   29.5000   0.0000  54.0000   C.3       1 RES1  17.6430
   604 17.64   29.5000   0.0000  54.5000   C.3       1 RES1  17.6430
   605 17.64   30.0000  -2.5000  53.0000   C.3       1 RES1  17.6430
   606 17.64   30.0000  -2.5000  53.5000   C.3       1 RES1  17.6430
   607 17.64   30.0000  -2.5000  54.0000   C.3       1 RES1  17.6430
   608 17.64   30.0000  -2.0000  53.0000   C.3       1 RES1  17.6430
   609 17.64   30.0000  -2.0000  53.5000   C.3       1 RES1  17.6430
   610 17.64   30.0000  -2.0000  54.0000   C.3       1 RES1  17.6430
   611 17.64   30.0000  -1.5000  53.0000   C.3       1 RES1  17.6430
   612 17.64   30.0000  -1.5000  53.5000   C.3       1 RES1  17.6430
   613 17.64   30.0000  -1.5000  54.0000   C.3       1 RES1  17.6430
   614 17.64   30.0000  -1.5000  54.5000   C.3       1 RES1  17.6430
   615 17.64   30.0000  -1.0000  53.5000   C.3       1 RES1  17.6430
   616 17.64   30.0000  -1.0000  54.0000   C.3       1 RES1  17.6430
   617 17.64   30.0000  -1.0000  54.5000   C.3       1 RES1  17.6430
   618 17.64   30.0000  -0.5000  53.5000   C.3       1 RES1  17.6430
   619 17.64   30.0000  -0.5000  54.0000   C.3       1 RES1  17.6430
   620 17.64   30.0000  -0.5000  54.5000   C.3       1 RES1  17.6430
   621 17.64   30.5000  -1.5000  53.5000   C.3       1 RES1  17.6430
   622 17.64   30.5000  -1.5000  54.0000   C.3       1 RES1  17.6430
   623 17.64   30.5000  -1.5000  54.5000   C.3       1 RES1  17.6430
   624 17.64   30.5000  -1.0000  53.5000   C.3       1 RES1  17.6430
   625 17.64   30.5000  -1.0000  54.0000   C.3       1 RES1  17.6430
   626 17.64   30.5000  -1.0000  54.5000   C.3       1 RES1  17.6430
   627 17.64   30.5000  -0.5000  53.5000   C.3       1 RES1  17.6430
   628 17.64   30.5000  -0.5000  54.0000   C.3       1 RES1  17.6430
   629 17.64   30.5000  -0.5000  54.5000   C.3       1 RES1  17.6430
   630 17.64   31.0000  -1.5000  53.5000   C.3       1 RES1  17.6430
   631 17.64   31.0000  -1.5000  54.0000   C.3       1 RES1  17.6430
   632 17.64   31.0000  -1.5000  54.5000   C.3       1 RES1  17.6430
   633 17.64   31.0000  -1.0000  53.5000   C.3       1 RES1  17.6430
   634 17.64   31.0000  -1.0000  54.0000   C.3       1 RES1  17.6430
   635 17.64   31.0000  -1.0000  54.5000   C.3       1 RES1  17.6430
   636 17.64   31.0000  -0.5000  53.5000   C.3       1 RES1  17.6430
   637 17.64   31.0000  -0.5000  54.0000   C.3       1 RES1  17.6430
   638 17.64   31.0000  -0.5000  54.5000   C.3       1 RES1  17.6430
   639 17.59   23.5000  -1.5000  56.0000   C.3       1 RES1  17.5950
   640 17.59   23.5000  -1.0000  56.0000   C.3       1 RES1  17.5950
   641 17.59   23.5000  -0.5000  56.0000   C.3       1 RES1  17.5950
   642 17.69   22.0000   1.0000  54.5000   C.3       1 RES1  17.6940
   643 17.69   22.5000   1.0000  54.5000   C.3       1 RES1  17.6940
   644 17.69   23.0000   1.0000  54.5000   C.3       1 RES1  17.6940
   645 17.37   23.0000   2.5000  52.0000   C.3       1 RES1  17.3660
   646 17.00   29.0000  -3.0000  53.0000   C.3       1 RES1  17.0050
   647 17.00   29.0000  -3.0000  53.5000   C.3       1 RES1  17.0050
   648 17.00   29.0000  -3.0000  54.0000   C.3       1 RES1  17.0050
   649 17.00   29.5000  -3.0000  53.0000   C.3       1 RES1  17.0050
   650 17.00   29.5000  -3.0000  53.5000   C.3       1 RES1  17.0050
   651 17.00   29.5000  -3.0000  54.0000   C.3       1 RES1  17.0050
   652 17.00   30.0000  -3.0000  53.0000   C.3       1 RES1  17.0050
   653 17.00   30.0000  -3.0000  53.5000   C.3       1 RES1  17.0050
   654 17.00   30.0000  -3.0000  54.0000   C.3       1 RES1  17.0050
   655 17.78   24.5000  -2.0000  54.0000   C.3       1 RES1  17.7850
   656 17.78   24.5000  -2.0000  54.5000   C.3       1 RES1  17.7850
   657 17.78   24.5000  -2.0000  55.0000   C.3       1 RES1  17.7850
   658 17.78   25.0000  -2.0000  54.0000   C.3       1 RES1  17.7850
   659 17.78   25.0000  -2.0000  54.5000   C.3       1 RES1  17.7850
   660 17.78   25.0000  -2.0000  55.0000   C.3       1 RES1  17.7850
   661 17.78   25.5000  -2.0000  54.0000   C.3       1 RES1  17.7850
   662 17.78   25.5000  -2.0000  54.5000   C.3       1 RES1  17.7850
   663 17.78   25.5000  -2.0000  55.0000   C.3       1 RES1  17.7850
   664 17.78   25.5000  -1.5000  54.5000   C.3       1 RES1  17.7850
   665 17.78   25.5000  -1.5000  55.0000   C.3       1 RES1  17.7850
   666 17.78   25.5000  -1.0000  55.0000   C.3       1 RES1  17.7850
   667 17.45   20.0000  -1.0000  52.5000   C.3       1 RES1  17.4470
   668 17.45   20.0000  -0.5000  52.5000   C.3       1 RES1  17.4470
   669 17.45   20.0000   0.0000  52.5000   C.3       1 RES1  17.4470
   670 17.51   26.5000   1.5000  50.5000   C.3       1 RES1  17.5120
   671 17.51   26.5000   2.0000  50.5000   C.3       1 RES1  17.5120
   672 17.51   26.5000   2.5000  50.5000   C.3       1 RES1  17.5120
   673 17.51   27.0000  -1.5000  53.5000   C.3       1 RES1  17.5120
   674 17.51   27.0000  -1.0000  53.5000   C.3       1 RES1  17.5120
   675 17.51   27.0000  -0.5000  53.5000   C.3       1 RES1  17.5120
   676 17.61   22.5000   1.5000  52.0000   C.3       1 RES1  17.6110
   677 17.44   27.0000  -2.0000  53.0000   C.3       1 RES1  17.4380
   678 17.44   27.0000  -2.0000  53.5000   C.3       1 RES1  17.4380
   679 17.01   25.0000  -0.5000  51.5000   C.3       1 RES1  17.0070
   680 17.01   28.5000   1.0000  53.5000   C.3       1 RES1  17.0070
   681 17.01   28.5000   1.5000  53.5000   C.3       1 RES1  17.0070
   682 17.01   28.5000   1.5000  54.0000   C.3       1 RES1  17.0070
   683 17.01   28.5000   1.5000  54.5000   C.3       1 RES1  17.0070
   684 17.48   21.0000   1.0000  53.5000   C.3       1 RES1  17.4810
   685 17.48   21.0000   1.0000  54.0000   C.3       1 RES1  17.4810
   686 17.48   21.0000   1.0000  54.5000   C.3       1 RES1  17.4810
   687 17.15   24.5000  -1.5000  56.5000   C.3       1 RES1  17.1530
   688 17.15   24.5000  -1.0000  56.5000   C.3       1 RES1  17.1530
   689 17.15   24.5000  -0.5000  56.5000   C.3       1 RES1  17.1530
   690 17.15   25.0000  -1.5000  56.5000   C.3       1 RES1  17.1530
   691 17.15   25.0000  -1.0000  56.5000   C.3       1 RES1  17.1530
   692 17.15   25.0000  -0.5000  56.5000   C.3       1 RES1  17.1530
   693 17.15   25.5000  -1.5000  56.0000   C.3       1 RES1  17.1530
   694 17.15   25.5000  -1.5000  56.5000   C.3       1 RES1  17.1530
   695 17.15   25.5000  -1.0000  56.0000   C.3       1 RES1  17.1530
   696 17.15   25.5000  -1.0000  56.5000   C.3       1 RES1  17.1530
   697 17.15   25.5000  -0.5000  56.0000   C.3       1 RES1  17.1530
   698 17.15   25.5000  -0.5000  56.5000   C.3       1 RES1  17.1530
   699 17.13   30.0000  -1.0000  52.5000   C.3       1 RES1  17.1280
   700 17.13   20.5000   1.5000  53.0000   C.3       1 RES1  17.1270
   701 17.13   20.5000   1.5000  53.5000   C.3       1 RES1  17.1270
   702 17.13   20.5000   1.5000  54.0000   C.3       1 RES1  17.1270
   703 17.13   20.5000   1.5000  54.5000   C.3       1 RES1  17.1270
   704 17.13   21.0000   1.5000  54.5000   C.3       1 RES1  17.1270
   705 17.13   21.5000   1.5000  54.5000   C.3       1 RES1  17.1270
   706 17.42   21.5000   1.0000  52.0000   C.3       1 RES1  17.4240
   707 17.90   22.0000  -0.5000  52.0000   C.3       1 RES1  17.8980
   708 17.90   22.0000  -0.5000  52.5000   C.3       1 RES1  17.8980
   709 17.90   22.0000  -0.5000  53.0000   C.3       1 RES1  17.8980
   710 17.90   22.0000   0.0000  52.0000   C.3       1 RES1  17.8980
   711 17.90   22.0000   0.0000  52.5000   C.3       1 RES1  17.8980
   712 17.90   22.0000   0.0000  53.0000   C.3       1 RES1  17.8980
   713 17.90   22.0000   0.5000  52.0000   C.3       1 RES1  17.8980
   714 17.90   22.0000   0.5000  52.5000   C.3       1 RES1  17.8980
   715 17.90   22.0000   0.5000  53.0000   C.3       1 RES1  17.8980
   716 17.90   22.5000  -0.5000  52.0000   C.3       1 RES1  17.8980
   717 17.90   23.0000  -0.5000  52.0000   C.3       1 RES1  17.8980
   718 17.19   28.0000   0.0000  54.5000   C.3       1 RES1  17.1950
   719 17.19   28.0000   0.5000  54.5000   C.3       1 RES1  17.1950
   720 17.19   28.5000   0.5000  55.5000   C.3       1 RES1  17.1950
   721 17.19   29.0000  -0.5000  55.5000   C.3       1 RES1  17.1950
   722 17.19   29.0000   0.0000  55.5000   C.3       1 RES1  17.1950
   723 17.19   29.0000   0.5000  55.5000   C.3       1 RES1  17.1950
   724 17.19   30.0000   0.0000  54.5000   C.3       1 RES1  17.1950
   725 17.40   28.5000  -2.5000  53.0000   C.3       1 RES1  17.3970
   726 17.42   25.0000   3.5000  51.5000   C.3       1 RES1  17.4190
   727 17.42   25.0000   3.5000  52.0000   C.3       1 RES1  17.4190
   728 17.42   25.5000   3.5000  51.5000   C.3       1 RES1  17.4190
   729 17.42   25.5000   3.5000  52.0000   C.3       1 RES1  17.4190
   730 17.42   26.0000   3.5000  51.0000   C.3       1 RES1  17.4190
   731 17.42   26.0000   3.5000  51.5000   C.3       1 RES1  17.4190
   732 17.42   26.0000   3.5000  52.0000   C.3       1 RES1  17.4190
   733 17.09   22.0000   1.5000  52.0000   C.3       1 RES1  17.0910
   734 17.09   24.5000   0.5000  51.0000   C.3       1 RES1  17.0910
   735 17.90   22.5000  -0.5000  52.5000   C.3       1 RES1  17.9010
   736 17.90   22.5000  -0.5000  53.0000   C.3       1 RES1  17.9010
   737 17.90   22.5000  -0.5000  53.5000   C.3       1 RES1  17.9010
   738 17.90   22.5000  -0.5000  54.0000   C.3       1 RES1  17.9010
   739 17.90   22.5000  -0.5000  54.5000   C.3       1 RES1  17.9010
   740 17.90   22.5000   0.0000  52.0000   C.3       1 RES1  17.9010
   741 17.90   22.5000   0.0000  52.5000   C.3       1 RES1  17.9010
   742 17.90   22.5000   0.0000  53.0000   C.3       1 RES1  17.9010
   743 17.90   22.5000   0.0000  53.5000   C.3       1 RES1  17.9010
   744 17.90   22.5000   0.0000  54.0000   C.3       1 RES1  17.9010
   745 17.90   22.5000   0.0000  54.5000   C.3       1 RES1  17.9010
   746 17.90   22.5000   0.5000  52.0000   C.3       1 RES1  17.9010
   747 17.90   22.5000   0.5000  52.5000   C.3       1 RES1  17.9010
   748 17.90   22.5000   0.5000  53.0000   C.3       1 RES1  17.9010
   749 17.90   22.5000   0.5000  53.5000   C.3       1 RES1  17.9010
   750 17.90   22.5000   0.5000  54.0000   C.3       1 RES1  17.9010
   751 17.90   22.5000   0.5000  54.5000   C.3       1 RES1  17.9010
   752 17.90   22.5000   1.0000  52.0000   C.3       1 RES1  17.9010
   753 17.90   22.5000   1.0000  52.5000   C.3       1 RES1  17.9010
   754 17.90   22.5000   1.0000  53.0000   C.3       1 RES1  17.9010
   755 17.90   22.5000   1.0000  53.5000   C.3       1 RES1  17.9010
   756 17.90   22.5000   1.0000  54.0000   C.3       1 RES1  17.9010
   757 17.90   22.5000   1.5000  53.0000   C.3       1 RES1  17.9010
   758 17.90   22.5000   1.5000  53.5000   C.3       1 RES1  17.9010
   759 17.90   22.5000   1.5000  54.0000   C.3       1 RES1  17.9010
   760 17.90   23.0000  -1.5000  52.5000   C.3       1 RES1  17.9010
   761 17.90   23.0000  -1.5000  53.0000   C.3       1 RES1  17.9010
   762 17.90   23.0000  -1.5000  53.5000   C.3       1 RES1  17.9010
   763 17.90   23.0000  -1.5000  54.0000   C.3       1 RES1  17.9010
   764 17.90   23.0000  -1.0000  52.5000   C.3       1 RES1  17.9010
   765 17.90   23.0000  -1.0000  53.0000   C.3       1 RES1  17.9010
   766 17.90   23.0000  -1.0000  53.5000   C.3       1 RES1  17.9010
   767 17.90   23.0000  -1.0000  54.0000   C.3       1 RES1  17.9010
   768 17.90   23.0000  -1.0000  54.5000   C.3       1 RES1  17.9010
   769 17.90   23.0000  -1.0000  55.0000   C.3       1 RES1  17.9010
   770 17.90   23.0000  -0.5000  52.5000   C.3       1 RES1  17.9010
   771 17.90   23.0000  -0.5000  53.0000   C.3       1 RES1  17.9010
   772 17.90   23.0000  -0.5000  53.5000   C.3       1 RES1  17.9010
   773 17.90   23.0000  -0.5000  54.0000   C.3       1 RES1  17.9010
   774 17.90   23.0000  -0.5000  54.5000   C.3       1 RES1  17.9010
   775 17.90   23.0000  -0.5000  55.0000   C.3       1 RES1  17.9010
   776 17.90   23.0000   0.0000  52.0000   C.3       1 RES1  17.9010
   777 17.90   23.0000   0.0000  52.5000   C.3       1 RES1  17.9010
   778 17.90   23.0000   0.0000  53.0000   C.3       1 RES1  17.9010
   779 17.90   23.0000   0.0000  53.5000   C.3       1 RES1  17.9010
   780 17.90   23.0000   0.0000  54.0000   C.3       1 RES1  17.9010
   781 17.90   23.0000   0.0000  54.5000   C.3       1 RES1  17.9010
   782 17.90   23.0000   0.0000  55.0000   C.3       1 RES1  17.9010
   783 17.90   23.0000   0.5000  52.0000   C.3       1 RES1  17.9010
   784 17.90   23.0000   0.5000  52.5000   C.3       1 RES1  17.9010
   785 17.90   23.0000   0.5000  53.0000   C.3       1 RES1  17.9010
   786 17.90   23.0000   0.5000  53.5000   C.3       1 RES1  17.9010
   787 17.90   23.0000   0.5000  54.0000   C.3       1 RES1  17.9010
   788 17.90   23.0000   0.5000  54.5000   C.3       1 RES1  17.9010
   789 17.90   23.0000   1.0000  52.0000   C.3       1 RES1  17.9010
   790 17.90   23.0000   1.0000  52.5000   C.3       1 RES1  17.9010
   791 17.90   23.0000   1.0000  53.0000   C.3       1 RES1  17.9010
   792 17.90   23.0000   1.0000  53.5000   C.3       1 RES1  17.9010
   793 17.90   23.0000   1.0000  54.0000   C.3       1 RES1  17.9010
   794 17.90   23.0000   1.5000  52.0000   C.3       1 RES1  17.9010
   795 17.90   23.0000   1.5000  52.5000   C.3       1 RES1  17.9010
   796 17.90   23.0000   1.5000  53.0000   C.3       1 RES1  17.9010
   797 17.90   23.0000   1.5000  53.5000   C.3       1 RES1  17.9010
   798 17.90   23.0000   1.5000  54.0000   C.3       1 RES1  17.9010
   799 17.90   23.0000   2.0000  52.5000   C.3       1 RES1  17.9010
   800 17.90   23.0000   2.0000  53.0000   C.3       1 RES1  17.9010
   801 17.90   23.0000   2.0000  53.5000   C.3       1 RES1  17.9010
   802 17.90   23.5000  -1.5000  52.5000   C.3       1 RES1  17.9010
   803 17.90   23.5000  -1.5000  53.0000   C.3       1 RES1  17.9010
   804 17.90   23.5000  -1.5000  53.5000   C.3       1 RES1  17.9010
   805 17.90   23.5000  -1.5000  54.0000   C.3       1 RES1  17.9010
   806 17.90   23.5000  -1.0000  52.5000   C.3       1 RES1  17.9010
   807 17.90   23.5000  -1.0000  53.0000   C.3       1 RES1  17.9010
   808 17.90   23.5000  -1.0000  53.5000   C.3       1 RES1  17.9010
   809 17.90   23.5000  -1.0000  54.0000   C.3       1 RES1  17.9010
   810 17.90   23.5000  -1.0000  54.5000   C.3       1 RES1  17.9010
   811 17.90   23.5000  -1.0000  55.0000   C.3       1 RES1  17.9010
   812 17.90   23.5000  -0.5000  52.5000   C.3       1 RES1  17.9010
   813 17.90   23.5000  -0.5000  53.0000   C.3       1 RES1  17.9010
   814 17.90   23.5000  -0.5000  53.5000   C.3       1 RES1  17.9010
   815 17.90   23.5000  -0.5000  54.0000   C.3       1 RES1  17.9010
   816 17.90   23.5000  -0.5000  54.5000   C.3       1 RES1  17.9010
   817 17.90   23.5000  -0.5000  55.0000   C.3       1 RES1  17.9010
   818 17.90   23.5000   0.0000  52.0000   C.3       1 RES1  17.9010
   819 17.90   23.5000   0.0000  52.5000   C.3       1 RES1  17.9010
   820 17.90   23.5000   0.0000  53.0000   C.3       1 RES1  17.9010
   821 17.90   23.5000   0.0000  53.5000   C.3       1 RES1  17.9010
   822 17.90   23.5000   0.0000  54.0000   C.3       1 RES1  17.9010
   823 17.90   23.5000   0.0000  54.5000   C.3       1 RES1  17.9010
   824 17.90   23.5000   0.0000  55.0000   C.3       1 RES1  17.9010
   825 17.90   23.5000   0.5000  51.5000   C.3       1 RES1  17.9010
   826 17.90   23.5000   0.5000  52.0000   C.3       1 RES1  17.9010
   827 17.90   23.5000   0.5000  52.5000   C.3       1 RES1  17.9010
   828 17.90   23.5000   0.5000  53.0000   C.3       1 RES1  17.9010
   829 17.90   23.5000   0.5000  53.5000   C.3       1 RES1  17.9010
   830 17.90   23.5000   0.5000  54.0000   C.3       1 RES1  17.9010
   831 17.90   23.5000   0.5000  54.5000   C.3       1 RES1  17.9010
   832 17.90   23.5000   1.0000  51.5000   C.3       1 RES1  17.9010
   833 17.90   23.5000   1.0000  52.0000   C.3       1 RES1  17.9010
   834 17.90   23.5000   1.0000  52.5000   C.3       1 RES1  17.9010
   835 17.90   23.5000   1.0000  53.0000   C.3       1 RES1  17.9010
   836 17.90   23.5000   1.0000  53.5000   C.3       1 RES1  17.9010
   837 17.90   23.5000   1.0000  54.0000   C.3       1 RES1  17.9010
   838 17.90   23.5000   1.5000  51.5000   C.3       1 RES1  17.9010
   839 17.90   23.5000   1.5000  52.0000   C.3       1 RES1  17.9010
   840 17.90   23.5000   1.5000  52.5000   C.3       1 RES1  17.9010
   841 17.90   23.5000   1.5000  53.0000   C.3       1 RES1  17.9010
   842 17.90   23.5000   1.5000  53.5000   C.3       1 RES1  17.9010
   843 17.90   23.5000   1.5000  54.0000   C.3       1 RES1  17.9010
   844 17.90   23.5000   2.0000  51.5000   C.3       1 RES1  17.9010
   845 17.90   23.5000   2.0000  52.0000   C.3       1 RES1  17.9010
   846 17.90   23.5000   2.0000  52.5000   C.3       1 RES1  17.9010
   847 17.90   23.5000   2.0000  53.0000   C.3       1 RES1  17.9010
   848 17.90   23.5000   2.0000  53.5000   C.3       1 RES1  17.9010
   849 17.90   23.5000   2.0000  54.0000   C.3       1 RES1  17.9010
   850 17.90   23.5000   2.5000  52.5000   C.3       1 RES1  17.9010
   851 17.90   23.5000   2.5000  53.0000   C.3       1 RES1  17.9010
   852 17.90   23.5000   2.5000  53.5000   C.3       1 RES1  17.9010
   853 17.90   24.0000  -1.5000  52.5000   C.3       1 RES1  17.9010
   854 17.90   24.0000  -1.5000  53.0000   C.3       1 RES1  17.9010
   855 17.90   24.0000  -1.5000  53.5000   C.3       1 RES1  17.9010
   856 17.90   24.0000  -1.5000  54.0000   C.3       1 RES1  17.9010
   857 17.90   24.0000  -1.0000  52.5000   C.3       1 RES1  17.9010
   858 17.90   24.0000  -1.0000  53.0000   C.3       1 RES1  17.9010
   859 17.90   24.0000  -1.0000  53.5000   C.3       1 RES1  17.9010
   860 17.90   24.0000  -1.0000  54.0000   C.3       1 RES1  17.9010
   861 17.90   24.0000  -1.0000  54.5000   C.3       1 RES1  17.9010
   862 17.90   24.0000  -1.0000  55.0000   C.3       1 RES1  17.9010
   863 17.90   24.0000  -0.5000  52.0000   C.3       1 RES1  17.9010
   864 17.90   24.0000  -0.5000  52.5000   C.3       1 RES1  17.9010
   865 17.90   24.0000  -0.5000  53.0000   C.3       1 RES1  17.9010
   866 17.90   24.0000  -0.5000  53.5000   C.3       1 RES1  17.9010
   867 17.90   24.0000  -0.5000  54.0000   C.3       1 RES1  17.9010
   868 17.90   24.0000  -0.5000  54.5000   C.3       1 RES1  17.9010
   869 17.90   24.0000  -0.5000  55.0000   C.3       1 RES1  17.9010
   870 17.90   24.0000   0.0000  52.0000   C.3       1 RES1  17.9010
   871 17.90   24.0000   0.0000  52.5000   C.3       1 RES1  17.9010
   872 17.90   24.0000   0.0000  53.0000   C.3       1 RES1  17.9010
   873 17.90   24.0000   0.0000  53.5000   C.3       1 RES1  17.9010
   874 17.90   24.0000   0.0000  54.0000   C.3       1 RES1  17.9010
   875 17.90   24.0000   0.0000  54.5000   C.3       1 RES1  17.9010
   876 17.90   24.0000   0.0000  55.0000   C.3       1 RES1  17.9010
   877 17.90   24.0000   0.5000  51.5000   C.3       1 RES1  17.9010
   878 17.90   24.0000   0.5000  52.0000   C.3       1 RES1  17.9010
   879 17.90   24.0000   0.5000  52.5000   C.3       1 RES1  17.9010
   880 17.90   24.0000   0.5000  53.0000   C.3       1 RES1  17.9010
   881 17.90   24.0000   0.5000  53.5000   C.3       1 RES1  17.9010
   882 17.90   24.0000   0.5000  54.0000   C.3       1 RES1  17.9010
   883 17.90   24.0000   0.5000  54.5000   C.3       1 RES1  17.9010
   884 17.90   24.0000   1.0000  51.5000   C.3       1 RES1  17.9010
   885 17.90   24.0000   1.0000  52.0000   C.3       1 RES1  17.9010
   886 17.90   24.0000   1.0000  52.5000   C.3       1 RES1  17.9010
   887 17.90   24.0000   1.0000  53.0000   C.3       1 RES1  17.9010
   888 17.90   24.0000   1.0000  53.5000   C.3       1 RES1  17.9010
   889 17.90   24.0000   1.0000  54.0000   C.3       1 RES1  17.9010
   890 17.90   24.0000   1.0000  54.5000   C.3       1 RES1  17.9010
   891 17.90   24.0000   1.5000  51.5000   C.3       1 RES1  17.9010
   892 17.90   24.0000   1.5000  52.0000   C.3       1 RES1  17.9010
   893 17.90   24.0000   1.5000  52.5000   C.3       1 RES1  17.9010
   894 17.90   24.0000   1.5000  53.0000   C.3       1 RES1  17.9010
   895 17.90   24.0000   1.5000  53.5000   C.3       1 RES1  17.9010
   896 17.90   24.0000   1.5000  54.0000   C.3       1 RES1  17.9010
   897 17.90   24.0000   2.0000  51.5000   C.3       1 RES1  17.9010
   898 17.90   24.0000   2.0000  52.0000   C.3       1 RES1  17.9010
   899 17.90   24.0000   2.0000  52.5000   C.3       1 RES1  17.9010
   900 17.90   24.0000   2.0000  53.0000   C.3       1 RES1  17.9010
   901 17.90   24.0000   2.0000  53.5000   C.3       1 RES1  17.9010
   902 17.90   24.0000   2.0000  54.0000   C.3       1 RES1  17.9010
   903 17.90   24.0000   2.5000  51.5000   C.3       1 RES1  17.9010
   904 17.90   24.0000   2.5000  52.0000   C.3       1 RES1  17.9010
   905 17.90   24.0000   2.5000  52.5000   C.3       1 RES1  17.9010
   906 17.90   24.0000   2.5000  53.0000   C.3       1 RES1  17.9010
   907 17.90   24.0000   2.5000  53.5000   C.3       1 RES1  17.9010
   908 17.90   24.0000   3.0000  52.5000   C.3       1 RES1  17.9010
   909 17.90   24.0000   3.0000  53.0000   C.3       1 RES1  17.9010
   910 17.90   24.0000   3.0000  53.5000   C.3       1 RES1  17.9010
   911 17.90   24.5000  -1.5000  52.5000   C.3       1 RES1  17.9010
   912 17.90   24.5000  -1.5000  53.0000   C.3       1 RES1  17.9010
   913 17.90   24.5000  -1.5000  53.5000   C.3       1 RES1  17.9010
   914 17.90   24.5000  -1.5000  54.0000   C.3       1 RES1  17.9010
   915 17.90   24.5000  -1.0000  52.5000   C.3       1 RES1  17.9010
   916 17.90   24.5000  -1.0000  53.0000   C.3       1 RES1  17.9010
   917 17.90   24.5000  -1.0000  53.5000   C.3       1 RES1  17.9010
   918 17.90   24.5000  -1.0000  54.0000   C.3       1 RES1  17.9010
   919 17.90   24.5000  -1.0000  54.5000   C.3       1 RES1  17.9010
   920 17.90   24.5000  -1.0000  55.0000   C.3       1 RES1  17.9010
   921 17.90   24.5000  -0.5000  52.0000   C.3       1 RES1  17.9010
   922 17.90   24.5000  -0.5000  52.5000   C.3       1 RES1  17.9010
   923 17.90   24.5000  -0.5000  53.0000   C.3       1 RES1  17.9010
   924 17.90   24.5000  -0.5000  53.5000   C.3       1 RES1  17.9010
   925 17.90   24.5000  -0.5000  54.0000   C.3       1 RES1  17.9010
   926 17.90   24.5000  -0.5000  54.5000   C.3       1 RES1  17.9010
   927 17.90   24.5000  -0.5000  55.0000   C.3       1 RES1  17.9010
   928 17.90   24.5000   0.0000  51.5000   C.3       1 RES1  17.9010
   929 17.90   24.5000   0.0000  52.0000   C.3       1 RES1  17.9010
   930 17.90   24.5000   0.0000  52.5000   C.3       1 RES1  17.9010
   931 17.90   24.5000   0.0000  53.0000   C.3       1 RES1  17.9010
   932 17.90   24.5000   0.0000  53.5000   C.3       1 RES1  17.9010
   933 17.90   24.5000   0.0000  54.0000   C.3       1 RES1  17.9010
   934 17.90   24.5000   0.0000  54.5000   C.3       1 RES1  17.9010
   935 17.90   24.5000   0.0000  55.0000   C.3       1 RES1  17.9010
   936 17.90   24.5000   0.5000  51.5000   C.3       1 RES1  17.9010
   937 17.90   24.5000   0.5000  52.0000   C.3       1 RES1  17.9010
   938 17.90   24.5000   0.5000  52.5000   C.3       1 RES1  17.9010
   939 17.90   24.5000   0.5000  53.0000   C.3       1 RES1  17.9010
   940 17.90   24.5000   0.5000  53.5000   C.3       1 RES1  17.9010
   941 17.90   24.5000   0.5000  54.0000   C.3       1 RES1  17.9010
   942 17.90   24.5000   0.5000  54.5000   C.3       1 RES1  17.9010
   943 17.90   24.5000   0.5000  55.0000   C.3       1 RES1  17.9010
   944 17.90   24.5000   1.0000  51.0000   C.3       1 RES1  17.9010
   945 17.90   24.5000   1.0000  51.5000   C.3       1 RES1  17.9010
   946 17.90   24.5000   1.0000  52.0000   C.3       1 RES1  17.9010
   947 17.90   24.5000   1.0000  52.5000   C.3       1 RES1  17.9010
   948 17.90   24.5000   1.0000  53.0000   C.3       1 RES1  17.9010
   949 17.90   24.5000   1.0000  53.5000   C.3       1 RES1  17.9010
   950 17.90   24.5000   1.0000  54.0000   C.3       1 RES1  17.9010
   951 17.90   24.5000   1.0000  54.5000   C.3       1 RES1  17.9010
   952 17.90   24.5000   1.5000  51.0000   C.3       1 RES1  17.9010
   953 17.90   24.5000   1.5000  51.5000   C.3       1 RES1  17.9010
   954 17.90   24.5000   1.5000  52.0000   C.3       1 RES1  17.9010
   955 17.90   24.5000   1.5000  52.5000   C.3       1 RES1  17.9010
   956 17.90   24.5000   1.5000  53.0000   C.3       1 RES1  17.9010
   957 17.90   24.5000   1.5000  53.5000   C.3       1 RES1  17.9010
   958 17.90   24.5000   1.5000  54.0000   C.3       1 RES1  17.9010
   959 17.90   24.5000   2.0000  51.0000   C.3       1 RES1  17.9010
   960 17.90   24.5000   2.0000  51.5000   C.3       1 RES1  17.9010
   961 17.90   24.5000   2.0000  52.0000   C.3       1 RES1  17.9010
   962 17.90   24.5000   2.0000  52.5000   C.3       1 RES1  17.9010
   963 17.90   24.5000   2.0000  53.0000   C.3       1 RES1  17.9010
   964 17.90   24.5000   2.0000  53.5000   C.3       1 RES1  17.9010
   965 17.90   24.5000   2.0000  54.0000   C.3       1 RES1  17.9010
   966 17.90   24.5000   2.5000  51.0000   C.3       1 RES1  17.9010
   967 17.90   24.5000   2.5000  51.5000   C.3       1 RES1  17.9010
   968 17.90   24.5000   2.5000  52.0000   C.3       1 RES1  17.9010
   969 17.90   24.5000   2.5000  52.5000   C.3       1 RES1  17.9010
   970 17.90   24.5000   2.5000  53.0000   C.3       1 RES1  17.9010
   971 17.90   24.5000   2.5000  53.5000   C.3       1 RES1  17.9010
   972 17.90   24.5000   2.5000  54.0000   C.3       1 RES1  17.9010
   973 17.90   24.5000   3.0000  52.0000   C.3       1 RES1  17.9010
   974 17.90   24.5000   3.0000  52.5000   C.3       1 RES1  17.9010
   975 17.90   24.5000   3.0000  53.0000   C.3       1 RES1  17.9010
   976 17.90   24.5000   3.0000  53.5000   C.3       1 RES1  17.9010
   977 17.90   24.5000   3.0000  54.0000   C.3       1 RES1  17.9010
   978 17.90   25.0000  -1.5000  52.5000   C.3       1 RES1  17.9010
   979 17.90   25.0000  -1.5000  53.0000   C.3       1 RES1  17.9010
   980 17.90   25.0000  -1.5000  53.5000   C.3       1 RES1  17.9010
   981 17.90   25.0000  -1.5000  54.0000   C.3       1 RES1  17.9010
   982 17.90   25.0000  -1.0000  52.5000   C.3       1 RES1  17.9010
   983 17.90   25.0000  -1.0000  53.0000   C.3       1 RES1  17.9010
   984 17.90   25.0000  -1.0000  53.5000   C.3       1 RES1  17.9010
   985 17.90   25.0000  -1.0000  54.0000   C.3       1 RES1  17.9010
   986 17.90   25.0000  -1.0000  54.5000   C.3       1 RES1  17.9010
   987 17.90   25.0000  -0.5000  52.0000   C.3       1 RES1  17.9010
   988 17.90   25.0000  -0.5000  52.5000   C.3       1 RES1  17.9010
   989 17.90   25.0000  -0.5000  53.0000   C.3       1 RES1  17.9010
   990 17.90   25.0000  -0.5000  53.5000   C.3       1 RES1  17.9010
   991 17.90   25.0000  -0.5000  54.0000   C.3       1 RES1  17.9010
   992 17.90   25.0000  -0.5000  54.5000   C.3       1 RES1  17.9010
   993 17.90   25.0000  -0.5000  55.0000   C.3       1 RES1  17.9010
   994 17.90   25.0000  -0.5000  55.5000   C.3       1 RES1  17.9010
   995 17.90   25.0000   0.0000  51.0000   C.3       1 RES1  17.9010
   996 17.90   25.0000   0.0000  51.5000   C.3       1 RES1  17.9010
   997 17.90   25.0000   0.0000  52.0000   C.3       1 RES1  17.9010
   998 17.90   25.0000   0.0000  52.5000   C.3       1 RES1  17.9010
   999 17.90   25.0000   0.0000  53.0000   C.3       1 RES1  17.9010
  1000 17.90   25.0000   0.0000  53.5000   C.3       1 RES1  17.9010
  1001 17.90   25.0000   0.0000  54.0000   C.3       1 RES1  17.9010
  1002 17.90   25.0000   0.0000  54.5000   C.3       1 RES1  17.9010
  1003 17.90   25.0000   0.0000  55.0000   C.3       1 RES1  17.9010
  1004 17.90   25.0000   0.0000  55.5000   C.3       1 RES1  17.9010
  1005 17.90   25.0000   0.5000  51.0000   C.3       1 RES1  17.9010
  1006 17.90   25.0000   0.5000  51.5000   C.3       1 RES1  17.9010
  1007 17.90   25.0000   0.5000  52.0000   C.3       1 RES1  17.9010
  1008 17.90   25.0000   0.5000  52.5000   C.3       1 RES1  17.9010
  1009 17.90   25.0000   0.5000  53.0000   C.3       1 RES1  17.9010
  1010 17.90   25.0000   0.5000  53.5000   C.3       1 RES1  17.9010
  1011 17.90   25.0000   0.5000  54.0000   C.3       1 RES1  17.9010
  1012 17.90   25.0000   0.5000  54.5000   C.3       1 RES1  17.9010
  1013 17.90   25.0000   0.5000  55.0000   C.3       1 RES1  17.9010
  1014 17.90   25.0000   0.5000  55.5000   C.3       1 RES1  17.9010
  1015 17.90   25.0000   1.0000  51.0000   C.3       1 RES1  17.9010
  1016 17.90   25.0000   1.0000  51.5000   C.3       1 RES1  17.9010
  1017 17.90   25.0000   1.0000  52.0000   C.3       1 RES1  17.9010
  1018 17.90   25.0000   1.0000  52.5000   C.3       1 RES1  17.9010
  1019 17.90   25.0000   1.0000  53.0000   C.3       1 RES1  17.9010
  1020 17.90   25.0000   1.0000  53.5000   C.3       1 RES1  17.9010
  1021 17.90   25.0000   1.0000  54.0000   C.3       1 RES1  17.9010
  1022 17.90   25.0000   1.0000  54.5000   C.3       1 RES1  17.9010
  1023 17.90   25.0000   1.0000  55.0000   C.3       1 RES1  17.9010
  1024 17.90   25.0000   1.5000  51.0000   C.3       1 RES1  17.9010
  1025 17.90   25.0000   1.5000  51.5000   C.3       1 RES1  17.9010
  1026 17.90   25.0000   1.5000  52.0000   C.3       1 RES1  17.9010
  1027 17.90   25.0000   1.5000  52.5000   C.3       1 RES1  17.9010
  1028 17.90   25.0000   1.5000  53.0000   C.3       1 RES1  17.9010
  1029 17.90   25.0000   1.5000  53.5000   C.3       1 RES1  17.9010
  1030 17.90   25.0000   1.5000  54.0000   C.3       1 RES1  17.9010
  1031 17.90   25.0000   1.5000  54.5000   C.3       1 RES1  17.9010
  1032 17.90   25.0000   2.0000  51.0000   C.3       1 RES1  17.9010
  1033 17.90   25.0000   2.0000  51.5000   C.3       1 RES1  17.9010
  1034 17.90   25.0000   2.0000  52.0000   C.3       1 RES1  17.9010
  1035 17.90   25.0000   2.0000  52.5000   C.3       1 RES1  17.9010
  1036 17.90   25.0000   2.0000  53.0000   C.3       1 RES1  17.9010
  1037 17.90   25.0000   2.0000  53.5000   C.3       1 RES1  17.9010
  1038 17.90   25.0000   2.0000  54.0000   C.3       1 RES1  17.9010
  1039 17.90   25.0000   2.5000  51.0000   C.3       1 RES1  17.9010
  1040 17.90   25.0000   2.5000  51.5000   C.3       1 RES1  17.9010
  1041 17.90   25.0000   2.5000  52.0000   C.3       1 RES1  17.9010
  1042 17.90   25.0000   2.5000  52.5000   C.3       1 RES1  17.9010
  1043 17.90   25.0000   2.5000  53.0000   C.3       1 RES1  17.9010
  1044 17.90   25.0000   2.5000  53.5000   C.3       1 RES1  17.9010
  1045 17.90   25.0000   2.5000  54.0000   C.3       1 RES1  17.9010
  1046 17.90   25.0000   3.0000  52.0000   C.3       1 RES1  17.9010
  1047 17.90   25.0000   3.0000  52.5000   C.3       1 RES1  17.9010
  1048 17.90   25.0000   3.0000  53.0000   C.3       1 RES1  17.9010
  1049 17.90   25.0000   3.0000  53.5000   C.3       1 RES1  17.9010
  1050 17.90   25.0000   3.0000  54.0000   C.3       1 RES1  17.9010
  1051 17.90   25.5000  -1.5000  52.5000   C.3       1 RES1  17.9010
  1052 17.90   25.5000  -1.5000  53.0000   C.3       1 RES1  17.9010
  1053 17.90   25.5000  -1.5000  53.5000   C.3       1 RES1  17.9010
  1054 17.90   25.5000  -1.5000  54.0000   C.3       1 RES1  17.9010
  1055 17.90   25.5000  -1.0000  52.0000   C.3       1 RES1  17.9010
  1056 17.90   25.5000  -1.0000  52.5000   C.3       1 RES1  17.9010
  1057 17.90   25.5000  -1.0000  53.0000   C.3       1 RES1  17.9010
  1058 17.90   25.5000  -1.0000  53.5000   C.3       1 RES1  17.9010
  1059 17.90   25.5000  -1.0000  54.0000   C.3       1 RES1  17.9010
  1060 17.90   25.5000  -1.0000  54.5000   C.3       1 RES1  17.9010
  1061 17.90   25.5000  -0.5000  51.5000   C.3       1 RES1  17.9010
  1062 17.90   25.5000  -0.5000  52.0000   C.3       1 RES1  17.9010
  1063 17.90   25.5000  -0.5000  52.5000   C.3       1 RES1  17.9010
  1064 17.90   25.5000  -0.5000  53.0000   C.3       1 RES1  17.9010
  1065 17.90   25.5000  -0.5000  53.5000   C.3       1 RES1  17.9010
  1066 17.90   25.5000  -0.5000  54.0000   C.3       1 RES1  17.9010
  1067 17.90   25.5000  -0.5000  54.5000   C.3       1 RES1  17.9010
  1068 17.90   25.5000  -0.5000  55.0000   C.3       1 RES1  17.9010
  1069 17.90   25.5000  -0.5000  55.5000   C.3       1 RES1  17.9010
  1070 17.90   25.5000   0.0000  51.0000   C.3       1 RES1  17.9010
  1071 17.90   25.5000   0.0000  51.5000   C.3       1 RES1  17.9010
  1072 17.90   25.5000   0.0000  52.0000   C.3       1 RES1  17.9010
  1073 17.90   25.5000   0.0000  52.5000   C.3       1 RES1  17.9010
  1074 17.90   25.5000   0.0000  53.0000   C.3       1 RES1  17.9010
  1075 17.90   25.5000   0.0000  53.5000   C.3       1 RES1  17.9010
  1076 17.90   25.5000   0.0000  54.0000   C.3       1 RES1  17.9010
  1077 17.90   25.5000   0.0000  54.5000   C.3       1 RES1  17.9010
  1078 17.90   25.5000   0.0000  55.0000   C.3       1 RES1  17.9010
  1079 17.90   25.5000   0.0000  55.5000   C.3       1 RES1  17.9010
  1080 17.90   25.5000   0.5000  51.0000   C.3       1 RES1  17.9010
  1081 17.90   25.5000   0.5000  51.5000   C.3       1 RES1  17.9010
  1082 17.90   25.5000   0.5000  52.0000   C.3       1 RES1  17.9010
  1083 17.90   25.5000   0.5000  52.5000   C.3       1 RES1  17.9010
  1084 17.90   25.5000   0.5000  53.0000   C.3       1 RES1  17.9010
  1085 17.90   25.5000   0.5000  53.5000   C.3       1 RES1  17.9010
  1086 17.90   25.5000   0.5000  54.0000   C.3       1 RES1  17.9010
  1087 17.90   25.5000   0.5000  54.5000   C.3       1 RES1  17.9010
  1088 17.90   25.5000   0.5000  55.0000   C.3       1 RES1  17.9010
  1089 17.90   25.5000   0.5000  55.5000   C.3       1 RES1  17.9010
  1090 17.90   25.5000   1.0000  51.0000   C.3       1 RES1  17.9010
  1091 17.90   25.5000   1.0000  51.5000   C.3       1 RES1  17.9010
  1092 17.90   25.5000   1.0000  52.0000   C.3       1 RES1  17.9010
  1093 17.90   25.5000   1.0000  52.5000   C.3       1 RES1  17.9010
  1094 17.90   25.5000   1.0000  53.0000   C.3       1 RES1  17.9010
  1095 17.90   25.5000   1.0000  53.5000   C.3       1 RES1  17.9010
  1096 17.90   25.5000   1.0000  54.0000   C.3       1 RES1  17.9010
  1097 17.90   25.5000   1.5000  51.0000   C.3       1 RES1  17.9010
  1098 17.90   25.5000   1.5000  51.5000   C.3       1 RES1  17.9010
  1099 17.90   25.5000   1.5000  52.0000   C.3       1 RES1  17.9010
  1100 17.90   25.5000   1.5000  52.5000   C.3       1 RES1  17.9010
  1101 17.90   25.5000   1.5000  53.0000   C.3       1 RES1  17.9010
  1102 17.90   25.5000   1.5000  53.5000   C.3       1 RES1  17.9010
  1103 17.90   25.5000   1.5000  54.0000   C.3       1 RES1  17.9010
  1104 17.90   25.5000   2.0000  51.0000   C.3       1 RES1  17.9010
  1105 17.90   25.5000   2.0000  51.5000   C.3       1 RES1  17.9010
  1106 17.90   25.5000   2.0000  52.0000   C.3       1 RES1  17.9010
  1107 17.90   25.5000   2.0000  52.5000   C.3       1 RES1  17.9010
  1108 17.90   25.5000   2.0000  53.0000   C.3       1 RES1  17.9010
  1109 17.90   25.5000   2.0000  53.5000   C.3       1 RES1  17.9010
  1110 17.90   25.5000   2.0000  54.0000   C.3       1 RES1  17.9010
  1111 17.90   25.5000   2.5000  51.0000   C.3       1 RES1  17.9010
  1112 17.90   25.5000   2.5000  51.5000   C.3       1 RES1  17.9010
  1113 17.90   25.5000   2.5000  52.0000   C.3       1 RES1  17.9010
  1114 17.90   25.5000   2.5000  52.5000   C.3       1 RES1  17.9010
  1115 17.90   25.5000   2.5000  53.0000   C.3       1 RES1  17.9010
  1116 17.90   25.5000   2.5000  53.5000   C.3       1 RES1  17.9010
  1117 17.90   25.5000   2.5000  54.0000   C.3       1 RES1  17.9010
  1118 17.90   25.5000   2.5000  54.5000   C.3       1 RES1  17.9010
  1119 17.90   25.5000   3.0000  52.0000   C.3       1 RES1  17.9010
  1120 17.90   25.5000   3.0000  52.5000   C.3       1 RES1  17.9010
  1121 17.90   25.5000   3.0000  53.0000   C.3       1 RES1  17.9010
  1122 17.90   25.5000   3.0000  53.5000   C.3       1 RES1  17.9010
  1123 17.90   25.5000   3.0000  54.0000   C.3       1 RES1  17.9010
  1124 17.90   25.5000   3.0000  54.5000   C.3       1 RES1  17.9010
  1125 17.90   26.0000  -1.5000  52.5000   C.3       1 RES1  17.9010
  1126 17.90   26.0000  -1.5000  53.0000   C.3       1 RES1  17.9010
  1127 17.90   26.0000  -1.5000  53.5000   C.3       1 RES1  17.9010
  1128 17.90   26.0000  -1.0000  52.0000   C.3       1 RES1  17.9010
  1129 17.90   26.0000  -1.0000  52.5000   C.3       1 RES1  17.9010
  1130 17.90   26.0000  -1.0000  53.0000   C.3       1 RES1  17.9010
  1131 17.90   26.0000  -1.0000  53.5000   C.3       1 RES1  17.9010
  1132 17.90   26.0000  -0.5000  51.5000   C.3       1 RES1  17.9010
  1133 17.90   26.0000  -0.5000  52.0000   C.3       1 RES1  17.9010
  1134 17.90   26.0000  -0.5000  52.5000   C.3       1 RES1  17.9010
  1135 17.90   26.0000  -0.5000  53.0000   C.3       1 RES1  17.9010
  1136 17.90   26.0000  -0.5000  53.5000   C.3       1 RES1  17.9010
  1137 17.90   26.0000  -0.5000  54.0000   C.3       1 RES1  17.9010
  1138 17.90   26.0000   0.0000  51.0000   C.3       1 RES1  17.9010
  1139 17.90   26.0000   0.0000  51.5000   C.3       1 RES1  17.9010
  1140 17.90   26.0000   0.0000  52.0000   C.3       1 RES1  17.9010
  1141 17.90   26.0000   0.0000  52.5000   C.3       1 RES1  17.9010
  1142 17.90   26.0000   0.0000  53.0000   C.3       1 RES1  17.9010
  1143 17.90   26.0000   0.0000  53.5000   C.3       1 RES1  17.9010
  1144 17.90   26.0000   0.0000  54.0000   C.3       1 RES1  17.9010
  1145 17.90   26.0000   0.5000  51.0000   C.3       1 RES1  17.9010
  1146 17.90   26.0000   0.5000  51.5000   C.3       1 RES1  17.9010
  1147 17.90   26.0000   0.5000  52.0000   C.3       1 RES1  17.9010
  1148 17.90   26.0000   0.5000  52.5000   C.3       1 RES1  17.9010
  1149 17.90   26.0000   0.5000  53.0000   C.3       1 RES1  17.9010
  1150 17.90   26.0000   0.5000  53.5000   C.3       1 RES1  17.9010
  1151 17.90   26.0000   0.5000  54.0000   C.3       1 RES1  17.9010
  1152 17.90   26.0000   0.5000  54.5000   C.3       1 RES1  17.9010
  1153 17.90   26.0000   1.0000  51.0000   C.3       1 RES1  17.9010
  1154 17.90   26.0000   1.0000  51.5000   C.3       1 RES1  17.9010
  1155 17.90   26.0000   1.0000  52.0000   C.3       1 RES1  17.9010
  1156 17.90   26.0000   1.0000  52.5000   C.3       1 RES1  17.9010
  1157 17.90   26.0000   1.0000  53.0000   C.3       1 RES1  17.9010
  1158 17.90   26.0000   1.0000  53.5000   C.3       1 RES1  17.9010
  1159 17.90   26.0000   1.0000  54.0000   C.3       1 RES1  17.9010
  1160 17.90   26.0000   1.5000  51.0000   C.3       1 RES1  17.9010
  1161 17.90   26.0000   1.5000  51.5000   C.3       1 RES1  17.9010
  1162 17.90   26.0000   1.5000  52.0000   C.3       1 RES1  17.9010
  1163 17.90   26.0000   1.5000  52.5000   C.3       1 RES1  17.9010
  1164 17.90   26.0000   1.5000  53.0000   C.3       1 RES1  17.9010
  1165 17.90   26.0000   1.5000  53.5000   C.3       1 RES1  17.9010
  1166 17.90   26.0000   1.5000  54.0000   C.3       1 RES1  17.9010
  1167 17.90   26.0000   2.0000  51.0000   C.3       1 RES1  17.9010
  1168 17.90   26.0000   2.0000  51.5000   C.3       1 RES1  17.9010
  1169 17.90   26.0000   2.0000  52.0000   C.3       1 RES1  17.9010
  1170 17.90   26.0000   2.0000  52.5000   C.3       1 RES1  17.9010
  1171 17.90   26.0000   2.0000  53.0000   C.3       1 RES1  17.9010
  1172 17.90   26.0000   2.5000  51.0000   C.3       1 RES1  17.9010
  1173 17.90   26.0000   2.5000  51.5000   C.3       1 RES1  17.9010
  1174 17.90   26.0000   2.5000  52.0000   C.3       1 RES1  17.9010
  1175 17.90   26.0000   2.5000  52.5000   C.3       1 RES1  17.9010
  1176 17.90   26.0000   2.5000  53.0000   C.3       1 RES1  17.9010
  1177 17.90   26.0000   3.0000  52.5000   C.3       1 RES1  17.9010
  1178 17.90   26.0000   3.0000  53.0000   C.3       1 RES1  17.9010
  1179 17.90   26.5000  -1.0000  52.0000   C.3       1 RES1  17.9010
  1180 17.90   26.5000  -1.0000  52.5000   C.3       1 RES1  17.9010
  1181 17.90   26.5000  -1.0000  53.0000   C.3       1 RES1  17.9010
  1182 17.90   26.5000  -1.0000  53.5000   C.3       1 RES1  17.9010
  1183 17.90   26.5000  -0.5000  51.5000   C.3       1 RES1  17.9010
  1184 17.90   26.5000  -0.5000  52.0000   C.3       1 RES1  17.9010
  1185 17.90   26.5000  -0.5000  52.5000   C.3       1 RES1  17.9010
  1186 17.90   26.5000  -0.5000  53.0000   C.3       1 RES1  17.9010
  1187 17.90   26.5000  -0.5000  53.5000   C.3       1 RES1  17.9010
  1188 17.90   26.5000  -0.5000  54.0000   C.3       1 RES1  17.9010
  1189 17.90   26.5000   0.0000  51.5000   C.3       1 RES1  17.9010
  1190 17.90   26.5000   0.0000  52.0000   C.3       1 RES1  17.9010
  1191 17.90   26.5000   0.0000  52.5000   C.3       1 RES1  17.9010
  1192 17.90   26.5000   0.0000  53.0000   C.3       1 RES1  17.9010
  1193 17.90   26.5000   0.0000  53.5000   C.3       1 RES1  17.9010
  1194 17.90   26.5000   0.0000  54.0000   C.3       1 RES1  17.9010
  1195 17.90   26.5000   0.5000  51.0000   C.3       1 RES1  17.9010
  1196 17.90   26.5000   0.5000  51.5000   C.3       1 RES1  17.9010
  1197 17.90   26.5000   0.5000  52.0000   C.3       1 RES1  17.9010
  1198 17.90   26.5000   0.5000  52.5000   C.3       1 RES1  17.9010
  1199 17.90   26.5000   0.5000  53.0000   C.3       1 RES1  17.9010
  1200 17.90   26.5000   0.5000  53.5000   C.3       1 RES1  17.9010
  1201 17.90   26.5000   0.5000  54.0000   C.3       1 RES1  17.9010
  1202 17.90   26.5000   1.0000  51.0000   C.3       1 RES1  17.9010
  1203 17.90   26.5000   1.0000  51.5000   C.3       1 RES1  17.9010
  1204 17.90   26.5000   1.0000  52.0000   C.3       1 RES1  17.9010
  1205 17.90   26.5000   1.0000  52.5000   C.3       1 RES1  17.9010
  1206 17.90   26.5000   1.0000  53.0000   C.3       1 RES1  17.9010
  1207 17.90   26.5000   1.0000  53.5000   C.3       1 RES1  17.9010
  1208 17.90   26.5000   1.0000  54.0000   C.3       1 RES1  17.9010
  1209 17.90   26.5000   1.5000  51.0000   C.3       1 RES1  17.9010
  1210 17.90   26.5000   1.5000  51.5000   C.3       1 RES1  17.9010
  1211 17.90   26.5000   1.5000  52.0000   C.3       1 RES1  17.9010
  1212 17.90   26.5000   1.5000  52.5000   C.3       1 RES1  17.9010
  1213 17.90   26.5000   1.5000  53.0000   C.3       1 RES1  17.9010
  1214 17.90   26.5000   1.5000  53.5000   C.3       1 RES1  17.9010
  1215 17.90   26.5000   1.5000  54.0000   C.3       1 RES1  17.9010
  1216 17.90   26.5000   2.0000  51.0000   C.3       1 RES1  17.9010
  1217 17.90   26.5000   2.0000  51.5000   C.3       1 RES1  17.9010
  1218 17.90   26.5000   2.0000  52.0000   C.3       1 RES1  17.9010
  1219 17.90   26.5000   2.0000  52.5000   C.3       1 RES1  17.9010
  1220 17.90   26.5000   2.0000  53.0000   C.3       1 RES1  17.9010
  1221 17.90   26.5000   2.5000  51.0000   C.3       1 RES1  17.9010
  1222 17.90   26.5000   2.5000  51.5000   C.3       1 RES1  17.9010
  1223 17.90   26.5000   2.5000  52.0000   C.3       1 RES1  17.9010
  1224 17.90   26.5000   2.5000  52.5000   C.3       1 RES1  17.9010
  1225 17.90   26.5000   2.5000  53.0000   C.3       1 RES1  17.9010
  1226 17.90   26.5000   3.0000  52.5000   C.3       1 RES1  17.9010
  1227 17.90   26.5000   3.0000  53.0000   C.3       1 RES1  17.9010
  1228 17.90   27.0000   0.0000  53.5000   C.3       1 RES1  17.9010
  1229 17.90   27.0000   0.0000  54.0000   C.3       1 RES1  17.9010
  1230 17.90   27.0000   0.5000  53.5000   C.3       1 RES1  17.9010
  1231 17.90   27.0000   0.5000  54.0000   C.3       1 RES1  17.9010
  1232 17.90   27.0000   1.0000  53.0000   C.3       1 RES1  17.9010
  1233 17.90   27.0000   1.0000  53.5000   C.3       1 RES1  17.9010
  1234 17.90   27.0000   1.0000  54.0000   C.3       1 RES1  17.9010
  1235 17.90   27.0000   1.0000  54.5000   C.3       1 RES1  17.9010
  1236 17.90   27.0000   1.5000  53.0000   C.3       1 RES1  17.9010
  1237 17.90   27.0000   1.5000  53.5000   C.3       1 RES1  17.9010
  1238 17.90   27.0000   1.5000  54.0000   C.3       1 RES1  17.9010
  1239 17.90   27.0000   1.5000  54.5000   C.3       1 RES1  17.9010
  1240 17.90   27.0000   2.0000  53.0000   C.3       1 RES1  17.9010
  1241 17.90   27.0000   2.5000  53.0000   C.3       1 RES1  17.9010
  1242 17.69   26.5000  -2.0000  54.0000   C.3       1 RES1  17.6900
  1243 17.69   26.5000  -1.5000  54.0000   C.3       1 RES1  17.6900
  1244 17.69   26.5000  -1.0000  54.0000   C.3       1 RES1  17.6900
  1245 17.67   21.0000   0.5000  52.5000   C.3       1 RES1  17.6750
  1246 17.67   21.0000   0.5000  53.0000   C.3       1 RES1  17.6750
  1247 17.44   27.0000   0.5000  51.0000   C.3       1 RES1  17.4420
  1248 17.44   27.0000   1.0000  51.0000   C.3       1 RES1  17.4420
  1249 17.44   27.0000   1.5000  51.0000   C.3       1 RES1  17.4420
  1250 17.24   20.5000  -1.0000  52.0000   C.3       1 RES1  17.2370
  1251 17.24   20.5000  -0.5000  52.0000   C.3       1 RES1  17.2370
  1252 17.24   20.5000   0.0000  52.0000   C.3       1 RES1  17.2370
  1253 17.24   23.0000  -2.5000  53.0000   C.3       1 RES1  17.2370
  1254 17.24   23.0000  -2.5000  53.5000   C.3       1 RES1  17.2370
  1255 17.24   23.0000  -2.5000  54.0000   C.3       1 RES1  17.2370
  1256 17.46   26.0000  -2.0000  55.5000   C.3       1 RES1  17.4610
  1257 17.46   26.0000  -1.5000  55.5000   C.3       1 RES1  17.4610
  1258 17.52   20.5000   0.5000  54.0000   C.3       1 RES1  17.5220
  1259 17.52   20.5000   0.5000  54.5000   C.3       1 RES1  17.5220
  1260 17.88   21.5000   0.5000  53.5000   C.3       1 RES1  17.8830
  1261 17.88   21.5000   0.5000  54.0000   C.3       1 RES1  17.8830
  1262 17.88   21.5000   0.5000  54.5000   C.3       1 RES1  17.8830
  1263 17.86   21.0000   0.5000  53.5000   C.3       1 RES1  17.8570
  1264 17.11   26.5000   0.0000  51.0000   C.3       1 RES1  17.1150
  1265 17.28   27.0000  -1.5000  54.0000   C.3       1 RES1  17.2790
  1266 17.28   27.0000  -1.0000  54.0000   C.3       1 RES1  17.2790
  1267 17.28   28.0000   0.0000  52.0000   C.3       1 RES1  17.2790
  1268 17.68   21.5000   1.0000  52.5000   C.3       1 RES1  17.6820
  1269 17.50   27.5000   1.0000  53.5000   C.3       1 RES1  17.5030
  1270 17.50   27.5000   1.0000  54.0000   C.3       1 RES1  17.5030
  1271 17.50   27.5000   1.0000  54.5000   C.3       1 RES1  17.5030
  1272 17.50   27.5000   1.5000  53.5000   C.3       1 RES1  17.5030
  1273 17.50   27.5000   1.5000  54.0000   C.3       1 RES1  17.5030
  1274 17.50   27.5000   1.5000  54.5000   C.3       1 RES1  17.5030
  1275 17.55   27.0000  -0.5000  54.0000   C.3       1 RES1  17.5500
  1276 17.02   23.5000   1.0000  54.5000   C.3       1 RES1  17.0240
  1277 17.56   23.0000   0.5000  51.5000   C.3       1 RES1  17.5550
  1278 17.56   23.0000   1.0000  51.5000   C.3       1 RES1  17.5550
  1279 17.56   23.0000   1.5000  51.5000   C.3       1 RES1  17.5550
  1280 17.43   24.5000   3.5000  52.5000   C.3       1 RES1  17.4300
  1281 17.43   24.5000   3.5000  53.0000   C.3       1 RES1  17.4300
  1282 17.43   24.5000   3.5000  53.5000   C.3       1 RES1  17.4300
  1283 17.43   25.0000   2.5000  54.5000   C.3       1 RES1  17.4300
  1284 17.43   25.0000   3.0000  54.5000   C.3       1 RES1  17.4300
  1285 17.43   25.0000   3.5000  52.5000   C.3       1 RES1  17.4300
  1286 17.43   25.0000   3.5000  53.0000   C.3       1 RES1  17.4300
  1287 17.43   25.0000   3.5000  53.5000   C.3       1 RES1  17.4300
  1288 17.43   25.0000   3.5000  54.0000   C.3       1 RES1  17.4300
  1289 17.43   25.0000   3.5000  54.5000   C.3       1 RES1  17.4300
  1290 17.43   25.5000   3.5000  52.5000   C.3       1 RES1  17.4300
  1291 17.43   25.5000   3.5000  53.0000   C.3       1 RES1  17.4300
  1292 17.43   25.5000   3.5000  53.5000   C.3       1 RES1  17.4300
  1293 17.43   25.5000   3.5000  54.0000   C.3       1 RES1  17.4300
  1294 17.43   25.5000   3.5000  54.5000   C.3       1 RES1  17.4300
  1295 17.43   26.0000   3.5000  53.5000   C.3       1 RES1  17.4300
  1296 17.43   26.0000   3.5000  54.0000   C.3       1 RES1  17.4300
  1297 17.43   26.0000   3.5000  54.5000   C.3       1 RES1  17.4300
  1298 17.07   28.0000  -2.0000  52.5000   C.3       1 RES1  17.0710
  1299 17.42   20.0000  -1.0000  54.5000   C.3       1 RES1  17.4200
  1300 17.42   20.0000  -0.5000  54.5000   C.3       1 RES1  17.4200
  1301 17.42   20.0000   0.0000  54.5000   C.3       1 RES1  17.4200
  1302 17.42   20.5000   1.0000  54.5000   C.3       1 RES1  17.4200
  1303 17.22   20.5000  -0.5000  55.0000   C.3       1 RES1  17.2170
  1304 17.22   20.5000   0.0000  55.0000   C.3       1 RES1  17.2170
  1305 17.22   20.5000   0.5000  55.0000   C.3       1 RES1  17.2170
  1306 17.47   26.0000   3.0000  50.5000   C.3       1 RES1  17.4660
  1307 17.19   25.0000  -2.0000  53.0000   C.3       1 RES1  17.1910
  1308 17.19   25.0000  -2.0000  53.5000   C.3       1 RES1  17.1910
  1309 17.87   22.5000   0.5000  55.0000   C.3       1 RES1  17.8700
  1310 17.36   27.0000   2.0000  52.0000   C.3       1 RES1  17.3610
  1311 17.36   27.0000   2.0000  52.5000   C.3       1 RES1  17.3610
  1312 17.36   27.5000  -0.5000  51.5000   C.3       1 RES1  17.3610
  1313 17.36   27.5000  -0.5000  52.0000   C.3       1 RES1  17.3610
  1314 17.36   27.5000  -0.5000  52.5000   C.3       1 RES1  17.3610
  1315 17.36   27.5000  -0.5000  53.0000   C.3       1 RES1  17.3610
  1316 17.36   27.5000  -0.5000  53.5000   C.3       1 RES1  17.3610
  1317 17.36   27.5000   0.0000  51.5000   C.3       1 RES1  17.3610
  1318 17.36   27.5000   0.0000  52.0000   C.3       1 RES1  17.3610
  1319 17.36   27.5000   0.0000  52.5000   C.3       1 RES1  17.3610
  1320 17.36   27.5000   0.0000  53.0000   C.3       1 RES1  17.3610
  1321 17.36   27.5000   0.0000  53.5000   C.3       1 RES1  17.3610
  1322 17.36   27.5000   0.5000  51.5000   C.3       1 RES1  17.3610
  1323 17.36   27.5000   0.5000  52.0000   C.3       1 RES1  17.3610
  1324 17.36   27.5000   0.5000  52.5000   C.3       1 RES1  17.3610
  1325 17.36   27.5000   0.5000  53.0000   C.3       1 RES1  17.3610
  1326 17.36   27.5000   1.0000  51.5000   C.3       1 RES1  17.3610
  1327 17.36   27.5000   1.0000  52.0000   C.3       1 RES1  17.3610
  1328 17.36   27.5000   1.0000  52.5000   C.3       1 RES1  17.3610
  1329 17.36   27.5000   1.0000  53.0000   C.3       1 RES1  17.3610
  1330 17.36   27.5000   1.5000  52.5000   C.3       1 RES1  17.3610
  1331 17.36   28.0000   0.5000  53.0000   C.3       1 RES1  17.3610
  1332 17.36   28.0000   0.5000  53.5000   C.3       1 RES1  17.3610
  1333 17.36   28.0000   0.5000  54.0000   C.3       1 RES1  17.3610
  1334 17.36   28.0000   1.0000  53.0000   C.3       1 RES1  17.3610
  1335 17.36   28.0000   1.0000  53.5000   C.3       1 RES1  17.3610
  1336 17.36   28.0000   1.0000  54.0000   C.3       1 RES1  17.3610
  1337 17.36   28.0000   1.5000  53.0000   C.3       1 RES1  17.3610
  1338 17.36   28.0000   1.5000  53.5000   C.3       1 RES1  17.3610
  1339 17.36   28.0000   1.5000  54.0000   C.3       1 RES1  17.3610
  1340 17.09   24.5000   0.0000  56.0000   C.3       1 RES1  17.0870
  1341 17.09   25.0000   0.0000  56.0000   C.3       1 RES1  17.0870
  1342 17.81   21.5000  -2.0000  53.0000   C.3       1 RES1  17.8110
  1343 17.81   21.5000  -2.0000  53.5000   C.3       1 RES1  17.8110
  1344 17.81   25.5000  -2.0000  52.5000   C.3       1 RES1  17.8110
  1345 17.81   25.5000  -2.0000  53.0000   C.3       1 RES1  17.8110
  1346 17.81   25.5000  -2.0000  53.5000   C.3       1 RES1  17.8110
  1347 17.81   26.0000  -2.0000  52.5000   C.3       1 RES1  17.8110
  1348 17.81   26.0000  -2.0000  53.0000   C.3       1 RES1  17.8110
  1349 17.81   26.0000  -2.0000  53.5000   C.3       1 RES1  17.8110
  1350 17.81   26.5000  -2.0000  52.5000   C.3       1 RES1  17.8110
  1351 17.81   26.5000  -2.0000  53.0000   C.3       1 RES1  17.8110
  1352 17.81   26.5000  -2.0000  53.5000   C.3       1 RES1  17.8110
  1353 17.61   20.0000  -1.5000  53.0000   C.3       1 RES1  17.6080
  1354 17.61   20.0000  -1.5000  53.5000   C.3       1 RES1  17.6080
  1355 17.61   20.0000  -1.5000  54.0000   C.3       1 RES1  17.6080
  1356 17.76   24.0000   1.5000  51.0000   C.3       1 RES1  17.7640
  1357 17.76   24.0000   2.0000  51.0000   C.3       1 RES1  17.7640
  1358 17.76   24.0000   2.5000  51.0000   C.3       1 RES1  17.7640
  1359 17.58   27.0000  -1.5000  52.0000   C.3       1 RES1  17.5820
  1360 17.58   27.0000  -1.5000  52.5000   C.3       1 RES1  17.5820
  1361 17.58   27.0000  -1.5000  53.0000   C.3       1 RES1  17.5820
  1362 17.58   27.0000  -1.0000  52.0000   C.3       1 RES1  17.5820
  1363 17.58   27.0000  -1.0000  52.5000   C.3       1 RES1  17.5820
  1364 17.58   27.0000  -1.0000  53.0000   C.3       1 RES1  17.5820
  1365 17.58   27.0000  -0.5000  53.0000   C.3       1 RES1  17.5820
  1366 17.80   23.5000   2.5000  52.0000   C.3       1 RES1  17.8010
  1367 17.88   21.5000  -1.5000  53.5000   C.3       1 RES1  17.8800
  1368 17.74   24.0000   1.0000  51.0000   C.3       1 RES1  17.7410
  1369 17.10   23.0000   2.5000  54.0000   C.3       1 RES1  17.1030
  1370 17.10   23.5000   2.5000  54.0000   C.3       1 RES1  17.1030
  1371 17.10   24.0000   2.5000  54.0000   C.3       1 RES1  17.1030
  1372 17.40   23.0000  -2.0000  54.0000   C.3       1 RES1  17.4000
  1373 17.08   23.0000   3.0000  52.0000   C.3       1 RES1  17.0790
  1374 17.08   23.0000   3.0000  52.5000   C.3       1 RES1  17.0790
  1375 17.08   23.0000   3.0000  53.0000   C.3       1 RES1  17.0790
  1376 17.08   23.5000   3.5000  52.0000   C.3       1 RES1  17.0790
  1377 17.08   23.5000   3.5000  52.5000   C.3       1 RES1  17.0790
  1378 17.08   23.5000   3.5000  53.0000   C.3       1 RES1  17.0790
  1379 17.37   23.5000   2.5000  51.0000   C.3       1 RES1  17.3740
  1380 17.30   22.0000   1.5000  54.0000   C.3       1 RES1  17.2960
  1381 17.27   26.0000  -2.5000  52.0000   C.3       1 RES1  17.2700
  1382 17.27   26.0000  -2.5000  52.5000   C.3       1 RES1  17.2700
  1383 17.27   26.0000  -2.5000  53.0000   C.3       1 RES1  17.2700
  1384 17.27   26.5000  -2.5000  52.0000   C.3       1 RES1  17.2700
  1385 17.27   26.5000  -2.5000  52.5000   C.3       1 RES1  17.2700
  1386 17.27   26.5000  -2.5000  53.0000   C.3       1 RES1  17.2700
  1387 17.27   27.0000  -2.5000  52.0000   C.3       1 RES1  17.2700
  1388 17.27   27.0000  -2.5000  52.5000   C.3       1 RES1  17.2700
  1389 17.27   27.0000  -2.5000  53.0000   C.3       1 RES1  17.2700
  1390 17.23   24.5000   2.0000  50.5000   C.3       1 RES1  17.2320
  1391 17.69   21.5000   1.0000  53.0000   C.3       1 RES1  17.6920
  1392 17.69   21.5000   1.0000  53.5000   C.3       1 RES1  17.6920
  1393 17.69   21.5000   1.0000  54.0000   C.3       1 RES1  17.6920
  1394 17.10   30.0000  -2.5000  54.5000   C.3       1 RES1  17.0980
  1395 17.10   30.5000  -2.5000  53.5000   C.3       1 RES1  17.0980
  1396 17.10   30.5000  -2.5000  54.0000   C.3       1 RES1  17.0980
  1397 17.10   30.5000  -2.5000  54.5000   C.3       1 RES1  17.0980
  1398 17.46   22.0000   1.0000  52.0000   C.3       1 RES1  17.4630
  1399 17.55   26.0000  -2.0000  51.5000   C.3       1 RES1  17.5470
  1400 17.55   26.0000  -1.5000  51.5000   C.3       1 RES1  17.5470
  1401 17.55   26.0000  -1.0000  51.5000   C.3       1 RES1  17.5470
  1402 17.55   26.5000  -2.0000  51.5000   C.3       1 RES1  17.5470
  1403 17.55   26.5000  -1.5000  51.5000   C.3       1 RES1  17.5470
  1404 17.55   26.5000  -1.0000  51.5000   C.3       1 RES1  17.5470
  1405 17.55   27.0000  -2.0000  51.5000   C.3       1 RES1  17.5470
  1406 17.55   27.0000  -2.0000  52.0000   C.3       1 RES1  17.5470
  1407 17.55   27.0000  -2.0000  52.5000   C.3       1 RES1  17.5470
  1408 17.55   27.0000  -1.5000  51.5000   C.3       1 RES1  17.5470
  1409 17.55   27.0000  -1.0000  51.5000   C.3       1 RES1  17.5470
  1410 17.73   26.0000  -2.0000  54.0000   C.3       1 RES1  17.7340
  1411 17.73   26.0000  -2.0000  54.5000   C.3       1 RES1  17.7340
  1412 17.73   26.0000  -2.0000  55.0000   C.3       1 RES1  17.7340
  1413 17.73   26.0000  -1.5000  54.0000   C.3       1 RES1  17.7340
  1414 17.73   26.0000  -1.5000  54.5000   C.3       1 RES1  17.7340
  1415 17.73   26.0000  -1.5000  55.0000   C.3       1 RES1  17.7340
  1416 17.73   26.0000  -1.0000  54.0000   C.3       1 RES1  17.7340
  1417 17.08   28.0000   1.5000  55.0000   C.3       1 RES1  17.0830
  1418 17.13   27.5000   1.0000  56.0000   C.3       1 RES1  17.1300
  1419 17.65   24.0000  -1.5000  56.0000   C.3       1 RES1  17.6540
  1420 17.65   24.0000  -1.0000  56.0000   C.3       1 RES1  17.6540
  1421 17.65   24.0000  -0.5000  56.0000   C.3       1 RES1  17.6540
  1422 17.65   24.5000  -1.5000  56.0000   C.3       1 RES1  17.6540
  1423 17.65   24.5000  -1.0000  56.0000   C.3       1 RES1  17.6540
  1424 17.65   24.5000  -0.5000  56.0000   C.3       1 RES1  17.6540
  1425 17.65   25.0000  -1.5000  56.0000   C.3       1 RES1  17.6540
  1426 17.65   25.0000  -1.0000  56.0000   C.3       1 RES1  17.6540
  1427 17.65   25.0000  -0.5000  56.0000   C.3       1 RES1  17.6540
  1428 17.48   23.5000   3.0000  52.0000   C.3       1 RES1  17.4790
@<TRIPOS>SUBSTRUCTURE
     1 RES1        1 GROUP             0 ****  ****    0  
