@<TRIPOS>MOLECULE
fitting_pts
   974     0     1     0     0
SMALL
USER_CHARGES
****
Generated from the CSD - Crystal connectivity not present

@<TRIPOS>ATOM
     1 19.47   52.0000  39.5000   5.0000   C.3       1 RES1  19.4653
     2 19.47   52.5000  39.5000   5.0000   C.3       1 RES1  19.4653
     3 25.51   51.5000  42.0000   2.0000   C.3       1 RES1  25.5131
     4 25.51   51.5000  42.5000   1.5000   C.3       1 RES1  25.5131
     5 25.51   52.0000  42.0000   2.0000   C.3       1 RES1  25.5131
     6 25.51   52.0000  42.5000   1.5000   C.3       1 RES1  25.5131
     7 17.14   52.0000  38.0000   0.5000   C.3       1 RES1  17.1421
     8 17.14   52.5000  38.0000   0.5000   C.3       1 RES1  17.1421
     9 19.11   51.5000  38.5000   0.5000   C.3       1 RES1  19.1138
    10 17.00   48.5000  38.5000   5.0000   C.3       1 RES1  17.0044
    11 17.00   48.5000  39.0000   5.0000   C.3       1 RES1  17.0044
    12 17.00   48.5000  39.5000   5.0000   C.3       1 RES1  17.0044
    13 21.49   49.0000  38.5000   5.0000   C.3       1 RES1  21.4880
    14 21.49   49.0000  40.5000   5.0000   C.3       1 RES1  21.4880
    15 23.64   52.0000  40.0000   4.5000   C.3       1 RES1  23.6382
    16 23.64   52.5000  40.0000   4.5000   C.3       1 RES1  23.6382
    17 19.13   50.0000  37.5000   1.5000   C.3       1 RES1  19.1252
    18 24.50   49.0000  39.0000   5.0000   C.3       1 RES1  24.4994
    19 24.50   49.0000  39.5000   5.0000   C.3       1 RES1  24.4994
    20 24.50   49.0000  40.0000   5.0000   C.3       1 RES1  24.4994
    21 24.50   49.5000  38.5000   5.0000   C.3       1 RES1  24.4994
    22 24.50   49.5000  40.5000   5.0000   C.3       1 RES1  24.4994
    23 24.50   50.0000  38.5000   5.0000   C.3       1 RES1  24.4994
    24 24.50   50.0000  40.5000   5.0000   C.3       1 RES1  24.4994
    25 24.50   50.5000  38.5000   5.0000   C.3       1 RES1  24.4994
    26 24.50   50.5000  40.5000   5.0000   C.3       1 RES1  24.4994
    27 18.01   52.5000  39.5000  -1.0000   C.3       1 RES1  18.0141
    28 17.13   52.0000  44.5000  -0.5000   C.3       1 RES1  17.1261
    29 17.13   52.0000  44.5000   0.0000   C.3       1 RES1  17.1261
    30 17.13   52.0000  44.5000   0.5000   C.3       1 RES1  17.1261
    31 21.99   51.5000  42.5000   2.0000   C.3       1 RES1  21.9904
    32 21.99   52.0000  42.5000   2.0000   C.3       1 RES1  21.9904
    33 21.99   52.5000  42.0000   2.0000   C.3       1 RES1  21.9904
    34 23.91   51.5000  42.0000  -1.0000   C.3       1 RES1  23.9116
    35 23.91   51.5000  42.5000  -1.0000   C.3       1 RES1  23.9116
    36 23.91   51.5000  43.0000  -1.0000   C.3       1 RES1  23.9116
    37 23.91   52.0000  42.0000  -1.0000   C.3       1 RES1  23.9116
    38 23.91   52.0000  42.5000  -1.0000   C.3       1 RES1  23.9116
    39 23.91   52.0000  43.0000  -1.0000   C.3       1 RES1  23.9116
    40 23.91   52.0000  43.0000   1.0000   C.3       1 RES1  23.9116
    41 23.91   52.5000  42.0000  -1.0000   C.3       1 RES1  23.9116
    42 23.91   52.5000  42.5000  -1.0000   C.3       1 RES1  23.9116
    43 23.91   52.5000  43.0000  -1.0000   C.3       1 RES1  23.9116
    44 23.91   52.5000  43.5000  -0.5000   C.3       1 RES1  23.9116
    45 23.91   52.5000  43.5000   0.0000   C.3       1 RES1  23.9116
    46 23.91   52.5000  43.5000   0.5000   C.3       1 RES1  23.9116
    47 29.67   52.0000  37.0000   2.5000   C.3       1 RES1  29.6693
    48 29.67   52.0000  37.0000   3.0000   C.3       1 RES1  29.6693
    49 29.67   52.0000  37.0000   3.5000   C.3       1 RES1  29.6693
    50 29.67   52.5000  37.0000   2.5000   C.3       1 RES1  29.6693
    51 29.67   52.5000  37.0000   3.0000   C.3       1 RES1  29.6693
    52 29.67   52.5000  37.0000   3.5000   C.3       1 RES1  29.6693
    53 17.59   52.5000  44.0000  -0.5000   C.3       1 RES1  17.5871
    54 17.59   52.5000  44.0000   0.0000   C.3       1 RES1  17.5871
    55 17.59   52.5000  44.0000   0.5000   C.3       1 RES1  17.5871
    56 20.41   51.5000  44.0000   1.0000   C.3       1 RES1  20.4129
    57 37.98   48.5000  40.0000  -1.0000   C.3       1 RES1  37.9778
    58 18.32   52.0000  39.5000  -1.0000   C.3       1 RES1  18.3202
    59 22.55   51.0000  39.0000   0.5000   C.3       1 RES1  22.5496
    60 22.55   51.5000  39.0000   0.5000   C.3       1 RES1  22.5496
    61 19.05   51.0000  37.0000   1.5000   C.3       1 RES1  19.0485
    62 19.05   51.5000  37.0000   1.5000   C.3       1 RES1  19.0485
    63 37.90   49.5000  39.0000   4.0000   C.3       1 RES1  37.8986
    64 37.90   49.5000  39.0000   4.5000   C.3       1 RES1  37.8986
    65 37.90   49.5000  39.5000   4.0000   C.3       1 RES1  37.8986
    66 37.90   49.5000  39.5000   4.5000   C.3       1 RES1  37.8986
    67 37.90   49.5000  40.0000   4.0000   C.3       1 RES1  37.8986
    68 37.90   49.5000  40.0000   4.5000   C.3       1 RES1  37.8986
    69 37.90   50.0000  39.0000   4.0000   C.3       1 RES1  37.8986
    70 37.90   50.0000  39.0000   4.5000   C.3       1 RES1  37.8986
    71 37.90   50.0000  39.5000   4.0000   C.3       1 RES1  37.8986
    72 37.90   50.0000  39.5000   4.5000   C.3       1 RES1  37.8986
    73 37.90   50.0000  40.0000   4.0000   C.3       1 RES1  37.8986
    74 37.90   50.0000  40.0000   4.5000   C.3       1 RES1  37.8986
    75 37.90   50.5000  39.0000   4.5000   C.3       1 RES1  37.8986
    76 37.90   50.5000  39.5000   3.5000   C.3       1 RES1  37.8986
    77 37.90   50.5000  39.5000   4.0000   C.3       1 RES1  37.8986
    78 37.90   50.5000  39.5000   4.5000   C.3       1 RES1  37.8986
    79 37.90   50.5000  40.0000   3.5000   C.3       1 RES1  37.8986
    80 37.90   50.5000  40.0000   4.0000   C.3       1 RES1  37.8986
    81 37.90   50.5000  40.0000   4.5000   C.3       1 RES1  37.8986
    82 25.76   52.0000  41.0000   2.5000   C.3       1 RES1  25.7551
    83 17.11   49.0000  39.0000   5.5000   C.3       1 RES1  17.1074
    84 17.11   49.0000  39.5000   5.5000   C.3       1 RES1  17.1074
    85 17.11   49.0000  40.0000   5.5000   C.3       1 RES1  17.1074
    86 18.76   51.5000  44.5000  -0.5000   C.3       1 RES1  18.7591
    87 18.76   51.5000  44.5000   0.0000   C.3       1 RES1  18.7591
    88 18.76   51.5000  44.5000   0.5000   C.3       1 RES1  18.7591
    89 25.59   50.5000  39.5000   0.0000   C.3       1 RES1  25.5935
    90 25.59   51.0000  39.5000   0.0000   C.3       1 RES1  25.5935
    91 25.59   51.5000  39.5000   0.0000   C.3       1 RES1  25.5935
    92 29.68   51.5000  37.5000   2.0000   C.3       1 RES1  29.6770
    93 29.68   52.0000  37.5000   2.0000   C.3       1 RES1  29.6770
    94 29.68   52.5000  37.5000   2.0000   C.3       1 RES1  29.6770
    95 39.14   50.5000  39.0000   2.0000   C.3       1 RES1  39.1428
    96 39.14   50.5000  39.0000   2.5000   C.3       1 RES1  39.1428
    97 39.14   50.5000  39.5000   2.0000   C.3       1 RES1  39.1428
    98 39.14   50.5000  39.5000   2.5000   C.3       1 RES1  39.1428
    99 39.14   50.5000  39.5000   3.0000   C.3       1 RES1  39.1428
   100 39.14   50.5000  40.0000   2.0000   C.3       1 RES1  39.1428
   101 39.14   50.5000  40.0000   2.5000   C.3       1 RES1  39.1428
   102 39.14   50.5000  40.0000   3.0000   C.3       1 RES1  39.1428
   103 39.14   51.0000  39.0000   2.0000   C.3       1 RES1  39.1428
   104 39.14   51.0000  39.0000   2.5000   C.3       1 RES1  39.1428
   105 39.14   51.0000  39.5000   2.0000   C.3       1 RES1  39.1428
   106 39.14   51.0000  39.5000   2.5000   C.3       1 RES1  39.1428
   107 39.14   51.0000  39.5000   3.0000   C.3       1 RES1  39.1428
   108 39.14   51.0000  40.0000   2.0000   C.3       1 RES1  39.1428
   109 39.14   51.0000  40.0000   2.5000   C.3       1 RES1  39.1428
   110 39.14   51.0000  40.0000   3.0000   C.3       1 RES1  39.1428
   111 39.14   51.5000  39.0000   2.0000   C.3       1 RES1  39.1428
   112 39.14   51.5000  39.0000   2.5000   C.3       1 RES1  39.1428
   113 39.14   51.5000  39.5000   2.0000   C.3       1 RES1  39.1428
   114 39.14   51.5000  39.5000   2.5000   C.3       1 RES1  39.1428
   115 39.14   51.5000  39.5000   3.0000   C.3       1 RES1  39.1428
   116 39.14   51.5000  40.0000   2.0000   C.3       1 RES1  39.1428
   117 39.14   51.5000  40.0000   2.5000   C.3       1 RES1  39.1428
   118 39.14   51.5000  40.0000   3.0000   C.3       1 RES1  39.1428
   119 30.67   50.0000  38.0000   3.0000   C.3       1 RES1  30.6708
   120 30.67   50.0000  38.0000   3.5000   C.3       1 RES1  30.6708
   121 30.67   50.0000  38.0000   4.0000   C.3       1 RES1  30.6708
   122 30.67   50.5000  37.5000   4.0000   C.3       1 RES1  30.6708
   123 30.67   50.5000  38.0000   4.5000   C.3       1 RES1  30.6708
   124 30.67   50.5000  38.5000   4.5000   C.3       1 RES1  30.6708
   125 30.67   51.0000  37.5000   4.0000   C.3       1 RES1  30.6708
   126 30.67   51.0000  38.0000   4.5000   C.3       1 RES1  30.6708
   127 30.67   51.0000  38.5000   4.5000   C.3       1 RES1  30.6708
   128 30.67   51.5000  37.5000   4.0000   C.3       1 RES1  30.6708
   129 30.67   51.5000  38.0000   4.5000   C.3       1 RES1  30.6708
   130 30.67   51.5000  38.5000   4.5000   C.3       1 RES1  30.6708
   131 30.67   51.5000  39.0000   4.5000   C.3       1 RES1  30.6708
   132 30.67   52.0000  38.0000   4.0000   C.3       1 RES1  30.6708
   133 18.03   52.0000  37.5000   5.0000   C.3       1 RES1  18.0260
   134 18.03   52.5000  37.5000   5.0000   C.3       1 RES1  18.0260
   135 30.29   52.5000  38.0000   4.0000   C.3       1 RES1  30.2871
   136 66.98   49.0000  40.5000  -0.5000   C.3       1 RES1  66.9817
   137 66.98   49.0000  41.0000  -0.5000   C.3       1 RES1  66.9817
   138 66.98   49.5000  41.0000  -0.5000   C.3       1 RES1  66.9817
   139 27.10   51.5000  39.5000   0.5000   C.3       1 RES1  27.1045
   140 27.10   52.0000  39.5000   0.5000   C.3       1 RES1  27.1045
   141 27.10   52.5000  39.5000   0.5000   C.3       1 RES1  27.1045
   142 21.83   51.0000  42.0000   3.0000   C.3       1 RES1  21.8339
   143 21.83   51.5000  42.0000   2.5000   C.3       1 RES1  21.8339
   144 30.07   51.0000  38.0000   1.5000   C.3       1 RES1  30.0667
   145 30.07   51.0000  38.0000   2.0000   C.3       1 RES1  30.0667
   146 32.90   50.5000  39.5000   1.0000   C.3       1 RES1  32.8973
   147 32.90   51.0000  39.5000   1.0000   C.3       1 RES1  32.8973
   148 32.90   51.5000  39.5000   1.0000   C.3       1 RES1  32.8973
   149 21.72   51.5000  39.0000   5.0000   C.3       1 RES1  21.7218
   150 21.72   51.5000  39.5000   5.0000   C.3       1 RES1  21.7218
   151 21.72   51.5000  40.0000   5.0000   C.3       1 RES1  21.7218
   152 28.42   49.0000  40.0000   4.5000   C.3       1 RES1  28.4240
   153 28.42   49.5000  39.0000   5.0000   C.3       1 RES1  28.4240
   154 28.42   49.5000  39.5000   5.0000   C.3       1 RES1  28.4240
   155 28.42   49.5000  40.0000   5.0000   C.3       1 RES1  28.4240
   156 28.42   50.0000  39.0000   5.0000   C.3       1 RES1  28.4240
   157 28.42   50.0000  39.5000   5.0000   C.3       1 RES1  28.4240
   158 28.42   50.0000  40.0000   5.0000   C.3       1 RES1  28.4240
   159 28.42   50.5000  39.0000   5.0000   C.3       1 RES1  28.4240
   160 28.42   50.5000  39.5000   5.0000   C.3       1 RES1  28.4240
   161 28.42   50.5000  40.0000   5.0000   C.3       1 RES1  28.4240
   162 34.65   50.5000  40.0000   1.5000   C.3       1 RES1  34.6535
   163 34.65   51.0000  40.0000   1.5000   C.3       1 RES1  34.6535
   164 34.65   51.5000  40.0000   1.5000   C.3       1 RES1  34.6535
   165 22.14   50.5000  39.0000   0.5000   C.3       1 RES1  22.1424
   166 22.75   52.0000  39.0000   0.5000   C.3       1 RES1  22.7451
   167 22.75   52.5000  39.0000   0.5000   C.3       1 RES1  22.7451
   168 21.68   52.0000  37.5000   1.0000   C.3       1 RES1  21.6848
   169 21.68   52.5000  37.5000   1.0000   C.3       1 RES1  21.6848
   170 19.13   50.5000  38.5000   0.5000   C.3       1 RES1  19.1252
   171 19.13   51.0000  38.5000   0.5000   C.3       1 RES1  19.1252
   172 39.44   50.5000  37.5000   2.5000   C.3       1 RES1  39.4426
   173 39.44   50.5000  37.5000   3.0000   C.3       1 RES1  39.4426
   174 39.44   50.5000  37.5000   3.5000   C.3       1 RES1  39.4426
   175 39.44   50.5000  38.0000   2.5000   C.3       1 RES1  39.4426
   176 39.44   50.5000  38.5000   2.5000   C.3       1 RES1  39.4426
   177 39.44   51.0000  37.5000   2.5000   C.3       1 RES1  39.4426
   178 39.44   51.0000  37.5000   3.0000   C.3       1 RES1  39.4426
   179 39.44   51.0000  37.5000   3.5000   C.3       1 RES1  39.4426
   180 39.44   51.0000  38.0000   2.5000   C.3       1 RES1  39.4426
   181 39.44   51.0000  38.5000   2.5000   C.3       1 RES1  39.4426
   182 39.44   51.5000  37.5000   2.5000   C.3       1 RES1  39.4426
   183 39.44   51.5000  37.5000   3.0000   C.3       1 RES1  39.4426
   184 39.44   51.5000  37.5000   3.5000   C.3       1 RES1  39.4426
   185 39.44   51.5000  38.0000   2.5000   C.3       1 RES1  39.4426
   186 39.44   51.5000  38.5000   2.5000   C.3       1 RES1  39.4426
   187 33.90   49.5000  38.5000   2.5000   C.3       1 RES1  33.9013
   188 27.11   52.0000  38.5000   4.5000   C.3       1 RES1  27.1132
   189 27.11   52.0000  39.0000   4.5000   C.3       1 RES1  27.1132
   190 27.11   52.0000  39.5000   4.5000   C.3       1 RES1  27.1132
   191 27.11   52.5000  38.5000   4.5000   C.3       1 RES1  27.1132
   192 27.11   52.5000  39.0000   4.5000   C.3       1 RES1  27.1132
   193 27.11   52.5000  39.5000   4.5000   C.3       1 RES1  27.1132
   194 50.24   49.0000  40.5000  -1.0000   C.3       1 RES1  50.2363
   195 17.98   48.0000  41.5000   3.0000   C.3       1 RES1  17.9806
   196 17.98   48.0000  42.0000   3.0000   C.3       1 RES1  17.9806
   197 33.71   50.5000  42.0000   0.0000   C.3       1 RES1  33.7070
   198 33.71   50.5000  42.0000   0.5000   C.3       1 RES1  33.7070
   199 33.71   50.5000  42.0000   1.0000   C.3       1 RES1  33.7070
   200 33.71   50.5000  42.5000   0.0000   C.3       1 RES1  33.7070
   201 33.71   50.5000  42.5000   0.5000   C.3       1 RES1  33.7070
   202 33.71   50.5000  42.5000   1.0000   C.3       1 RES1  33.7070
   203 18.92   51.5000  36.5000   4.0000   C.3       1 RES1  18.9152
   204 34.96   52.5000  39.5000   2.5000   C.3       1 RES1  34.9623
   205 24.02   48.5000  41.5000   3.5000   C.3       1 RES1  24.0227
   206 24.02   49.0000  42.0000   3.5000   C.3       1 RES1  24.0227
   207 24.02   49.5000  42.0000   3.5000   C.3       1 RES1  24.0227
   208 24.02   50.0000  42.0000   3.5000   C.3       1 RES1  24.0227
   209 22.10   51.0000  42.5000   2.0000   C.3       1 RES1  22.0980
   210 29.72   52.0000  37.5000   4.0000   C.3       1 RES1  29.7161
   211 29.72   52.5000  37.5000   4.0000   C.3       1 RES1  29.7161
   212 27.08   51.0000  39.5000   0.5000   C.3       1 RES1  27.0795
   213 36.39   51.0000  39.5000   4.0000   C.3       1 RES1  36.3884
   214 36.39   51.0000  40.0000   4.0000   C.3       1 RES1  36.3884
   215 36.39   51.5000  39.5000   3.5000   C.3       1 RES1  36.3884
   216 36.39   51.5000  39.5000   4.0000   C.3       1 RES1  36.3884
   217 36.39   51.5000  40.0000   3.5000   C.3       1 RES1  36.3884
   218 36.39   51.5000  40.0000   4.0000   C.3       1 RES1  36.3884
   219 32.04   52.5000  42.0000   0.0000   C.3       1 RES1  32.0357
   220 32.04   52.5000  42.0000   0.5000   C.3       1 RES1  32.0357
   221 32.04   52.5000  42.0000   1.0000   C.3       1 RES1  32.0357
   222 27.72   52.0000  38.5000   1.0000   C.3       1 RES1  27.7250
   223 27.72   52.0000  39.0000   1.0000   C.3       1 RES1  27.7250
   224 34.33   49.5000  41.0000   3.5000   C.3       1 RES1  34.3348
   225 34.33   50.0000  41.0000   3.5000   C.3       1 RES1  34.3348
   226 34.33   50.5000  41.0000   2.5000   C.3       1 RES1  34.3348
   227 34.33   50.5000  41.0000   3.0000   C.3       1 RES1  34.3348
   228 34.33   50.5000  41.0000   3.5000   C.3       1 RES1  34.3348
   229 33.15   51.5000  40.5000   1.5000   C.3       1 RES1  33.1513
   230 33.15   51.5000  41.0000   2.0000   C.3       1 RES1  33.1513
   231 33.15   51.5000  41.0000   2.5000   C.3       1 RES1  33.1513
   232 28.69   50.0000  38.5000   1.0000   C.3       1 RES1  28.6877
   233 28.69   50.5000  38.5000   1.0000   C.3       1 RES1  28.6877
   234 28.69   50.5000  39.0000   1.0000   C.3       1 RES1  28.6877
   235 28.69   51.0000  38.5000   1.0000   C.3       1 RES1  28.6877
   236 28.69   51.0000  39.0000   1.0000   C.3       1 RES1  28.6877
   237 33.70   49.0000  40.0000   3.0000   C.3       1 RES1  33.7006
   238 33.70   49.0000  40.0000   3.5000   C.3       1 RES1  33.7006
   239 33.70   49.0000  40.0000   4.0000   C.3       1 RES1  33.7006
   240 33.70   49.0000  40.5000   3.0000   C.3       1 RES1  33.7006
   241 33.70   49.0000  40.5000   3.5000   C.3       1 RES1  33.7006
   242 33.70   49.0000  40.5000   4.0000   C.3       1 RES1  33.7006
   243 33.70   49.0000  41.0000   3.0000   C.3       1 RES1  33.7006
   244 33.70   49.0000  41.0000   3.5000   C.3       1 RES1  33.7006
   245 33.70   49.0000  41.0000   4.0000   C.3       1 RES1  33.7006
   246 33.70   49.5000  40.5000   4.0000   C.3       1 RES1  33.7006
   247 33.70   49.5000  41.0000   4.0000   C.3       1 RES1  33.7006
   248 33.70   50.0000  41.0000   4.0000   C.3       1 RES1  33.7006
   249 25.43   49.5000  38.0000   2.5000   C.3       1 RES1  25.4260
   250 24.37   51.5000  43.0000   1.0000   C.3       1 RES1  24.3740
   251 19.11   50.5000  41.5000   4.5000   C.3       1 RES1  19.1078
   252 27.46   52.0000  42.5000   1.0000   C.3       1 RES1  27.4572
   253 31.77   49.0000  40.0000  -1.5000   C.3       1 RES1  31.7674
   254 32.85   52.0000  39.5000   1.0000   C.3       1 RES1  32.8479
   255 32.85   52.5000  39.5000   1.0000   C.3       1 RES1  32.8479
   256 32.85   52.5000  39.5000   1.5000   C.3       1 RES1  32.8479
   257 32.85   52.5000  39.5000   2.0000   C.3       1 RES1  32.8479
   258 32.85   52.5000  40.0000   1.0000   C.3       1 RES1  32.8479
   259 32.85   52.5000  40.0000   1.5000   C.3       1 RES1  32.8479
   260 32.85   52.5000  40.0000   2.0000   C.3       1 RES1  32.8479
   261 32.85   52.5000  40.5000   1.0000   C.3       1 RES1  32.8479
   262 32.85   52.5000  40.5000   1.5000   C.3       1 RES1  32.8479
   263 32.85   52.5000  40.5000   2.0000   C.3       1 RES1  32.8479
   264 20.45   50.5000  38.0000   5.0000   C.3       1 RES1  20.4472
   265 20.45   51.0000  38.0000   5.0000   C.3       1 RES1  20.4472
   266 20.45   51.5000  38.0000   5.0000   C.3       1 RES1  20.4472
   267 20.45   51.5000  38.5000   5.0000   C.3       1 RES1  20.4472
   268 25.35   52.0000  37.0000   2.0000   C.3       1 RES1  25.3473
   269 25.35   52.5000  37.0000   2.0000   C.3       1 RES1  25.3473
   270 21.79   48.5000  40.0000   4.5000   C.3       1 RES1  21.7856
   271 21.79   48.5000  40.5000   4.5000   C.3       1 RES1  21.7856
   272 21.79   48.5000  41.0000   4.5000   C.3       1 RES1  21.7856
   273 21.79   49.0000  41.5000   4.5000   C.3       1 RES1  21.7856
   274 21.79   49.5000  41.5000   4.5000   C.3       1 RES1  21.7856
   275 21.79   50.0000  41.5000   4.5000   C.3       1 RES1  21.7856
   276 23.26   52.0000  40.5000  -1.0000   C.3       1 RES1  23.2561
   277 23.26   52.0000  41.0000  -1.0000   C.3       1 RES1  23.2561
   278 23.26   52.0000  41.5000  -1.0000   C.3       1 RES1  23.2561
   279 23.26   52.5000  40.5000  -1.0000   C.3       1 RES1  23.2561
   280 23.26   52.5000  41.0000  -1.0000   C.3       1 RES1  23.2561
   281 23.26   52.5000  41.5000  -1.0000   C.3       1 RES1  23.2561
   282 17.61   49.0000  42.0000   4.5000   C.3       1 RES1  17.6104
   283 17.61   49.5000  42.0000   4.5000   C.3       1 RES1  17.6104
   284 17.61   50.0000  42.0000   4.5000   C.3       1 RES1  17.6104
   285 33.70   51.0000  42.0000   0.0000   C.3       1 RES1  33.7041
   286 33.70   51.5000  42.0000   0.0000   C.3       1 RES1  33.7041
   287 33.70   52.0000  42.0000   0.0000   C.3       1 RES1  33.7041
   288 18.86   52.0000  41.0000   4.0000   C.3       1 RES1  18.8639
   289 25.29   51.0000  37.5000   1.5000   C.3       1 RES1  25.2886
   290 22.10   50.5000  42.0000   3.0000   C.3       1 RES1  22.1000
   291 17.63   50.5000  39.0000   0.0000   C.3       1 RES1  17.6284
   292 24.36   52.5000  40.5000   3.0000   C.3       1 RES1  24.3574
   293 27.65   51.0000  39.0000   5.0000   C.3       1 RES1  27.6527
   294 27.65   51.0000  39.5000   5.0000   C.3       1 RES1  27.6527
   295 27.65   51.0000  40.0000   5.0000   C.3       1 RES1  27.6527
   296 22.64   51.5000  43.5000   1.0000   C.3       1 RES1  22.6358
   297 19.29   52.5000  42.5000   2.0000   C.3       1 RES1  19.2874
   298 25.80   51.5000  41.0000   3.0000   C.3       1 RES1  25.7998
   299 25.80   51.5000  41.0000   3.5000   C.3       1 RES1  25.7998
   300 26.47   52.0000  38.0000   4.5000   C.3       1 RES1  26.4664
   301 26.47   52.5000  38.0000   4.5000   C.3       1 RES1  26.4664
   302 19.22   49.0000  38.0000   2.0000   C.3       1 RES1  19.2216
   303 26.63   50.5000  43.0000   1.5000   C.3       1 RES1  26.6266
   304 17.29   51.5000  44.5000   1.0000   C.3       1 RES1  17.2900
   305 22.38   52.0000  36.5000   2.5000   C.3       1 RES1  22.3821
   306 22.38   52.0000  36.5000   3.0000   C.3       1 RES1  22.3821
   307 22.38   52.0000  36.5000   3.5000   C.3       1 RES1  22.3821
   308 22.38   52.5000  36.5000   2.5000   C.3       1 RES1  22.3821
   309 22.38   52.5000  36.5000   3.0000   C.3       1 RES1  22.3821
   310 22.38   52.5000  36.5000   3.5000   C.3       1 RES1  22.3821
   311 21.78   52.0000  41.5000   2.5000   C.3       1 RES1  21.7755
   312 32.82   52.5000  40.5000   0.5000   C.3       1 RES1  32.8226
   313 32.82   52.5000  41.0000   0.5000   C.3       1 RES1  32.8226
   314 32.82   52.5000  41.0000   1.0000   C.3       1 RES1  32.8226
   315 32.82   52.5000  41.0000   1.5000   C.3       1 RES1  32.8226
   316 32.82   52.5000  41.5000   0.5000   C.3       1 RES1  32.8226
   317 32.82   52.5000  41.5000   1.0000   C.3       1 RES1  32.8226
   318 32.82   52.5000  41.5000   1.5000   C.3       1 RES1  32.8226
   319 25.75   50.5000  41.5000   3.5000   C.3       1 RES1  25.7511
   320 20.74   50.5000  44.0000  -1.0000   C.3       1 RES1  20.7354
   321 20.74   51.0000  44.0000  -1.0000   C.3       1 RES1  20.7354
   322 33.51   50.5000  42.0000   1.5000   C.3       1 RES1  33.5144
   323 33.51   50.5000  42.5000   1.5000   C.3       1 RES1  33.5144
   324 25.28   48.5000  41.0000   3.0000   C.3       1 RES1  25.2754
   325 25.28   48.5000  41.0000   3.5000   C.3       1 RES1  25.2754
   326 25.28   48.5000  41.0000   4.0000   C.3       1 RES1  25.2754
   327 25.28   49.0000  40.5000   4.5000   C.3       1 RES1  25.2754
   328 25.28   49.0000  41.0000   4.5000   C.3       1 RES1  25.2754
   329 25.28   49.5000  41.0000   4.5000   C.3       1 RES1  25.2754
   330 25.28   50.0000  41.0000   4.5000   C.3       1 RES1  25.2754
   331 33.14   51.0000  40.5000  -0.5000   C.3       1 RES1  33.1389
   332 33.14   51.0000  41.0000  -0.5000   C.3       1 RES1  33.1389
   333 33.14   51.0000  41.5000  -0.5000   C.3       1 RES1  33.1389
   334 27.99   51.5000  38.5000   1.0000   C.3       1 RES1  27.9880
   335 27.99   51.5000  39.0000   1.0000   C.3       1 RES1  27.9880
   336 25.90   51.0000  41.5000   3.0000   C.3       1 RES1  25.9007
   337 19.31   52.0000  44.0000   1.0000   C.3       1 RES1  19.3106
   338 38.25   50.0000  38.5000   1.5000   C.3       1 RES1  38.2503
   339 38.25   50.0000  38.5000   2.0000   C.3       1 RES1  38.2503
   340 38.25   50.0000  38.5000   2.5000   C.3       1 RES1  38.2503
   341 38.25   50.0000  39.0000   1.5000   C.3       1 RES1  38.2503
   342 38.25   50.0000  39.5000   1.5000   C.3       1 RES1  38.2503
   343 38.25   50.5000  38.5000   1.5000   C.3       1 RES1  38.2503
   344 38.25   50.5000  38.5000   2.0000   C.3       1 RES1  38.2503
   345 38.25   50.5000  39.0000   1.5000   C.3       1 RES1  38.2503
   346 38.25   50.5000  39.5000   1.5000   C.3       1 RES1  38.2503
   347 38.25   51.0000  38.5000   1.5000   C.3       1 RES1  38.2503
   348 38.25   51.0000  38.5000   2.0000   C.3       1 RES1  38.2503
   349 38.25   51.0000  39.0000   1.5000   C.3       1 RES1  38.2503
   350 38.25   51.0000  39.5000   1.5000   C.3       1 RES1  38.2503
   351 19.36   52.0000  38.5000   0.5000   C.3       1 RES1  19.3559
   352 19.36   52.5000  38.5000   0.5000   C.3       1 RES1  19.3559
   353 22.80   51.0000  43.0000   1.5000   C.3       1 RES1  22.8010
   354 33.56   51.0000  42.5000   0.0000   C.3       1 RES1  33.5582
   355 33.56   51.0000  42.5000   0.5000   C.3       1 RES1  33.5582
   356 33.56   51.0000  42.5000   1.0000   C.3       1 RES1  33.5582
   357 17.67   51.0000  42.5000   2.5000   C.3       1 RES1  17.6713
   358 36.64   52.0000  38.5000   1.5000   C.3       1 RES1  36.6405
   359 36.64   52.0000  39.0000   1.5000   C.3       1 RES1  36.6405
   360 36.64   52.0000  39.5000   1.5000   C.3       1 RES1  36.6405
   361 36.64   52.0000  39.5000   2.0000   C.3       1 RES1  36.6405
   362 36.64   52.0000  39.5000   2.5000   C.3       1 RES1  36.6405
   363 20.33   52.0000  37.0000   1.5000   C.3       1 RES1  20.3271
   364 20.33   52.5000  37.0000   1.5000   C.3       1 RES1  20.3271
   365 26.22   52.5000  41.0000   2.0000   C.3       1 RES1  26.2237
   366 26.22   52.5000  41.5000   2.0000   C.3       1 RES1  26.2237
   367 25.10   50.5000  41.0000  -1.0000   C.3       1 RES1  25.1003
   368 25.10   50.5000  41.5000  -1.0000   C.3       1 RES1  25.1003
   369 25.10   50.5000  42.0000  -1.0000   C.3       1 RES1  25.1003
   370 20.46   52.5000  43.0000   1.5000   C.3       1 RES1  20.4606
   371 19.79   52.5000  41.0000   3.0000   C.3       1 RES1  19.7910
   372 29.46   50.5000  42.0000   2.0000   C.3       1 RES1  29.4585
   373 20.45   48.5000  38.0000   2.5000   C.3       1 RES1  20.4518
   374 17.95   48.0000  41.5000   3.5000   C.3       1 RES1  17.9467
   375 17.95   48.0000  42.0000   3.5000   C.3       1 RES1  17.9467
   376 32.31   50.5000  40.0000  -0.5000   C.3       1 RES1  32.3114
   377 32.31   51.0000  40.0000  -0.5000   C.3       1 RES1  32.3114
   378 32.31   51.5000  40.0000  -0.5000   C.3       1 RES1  32.3114
   379 32.31   51.5000  40.5000  -0.5000   C.3       1 RES1  32.3114
   380 32.31   51.5000  41.0000  -0.5000   C.3       1 RES1  32.3114
   381 19.19   50.5000  42.5000   3.0000   C.3       1 RES1  19.1949
   382 37.11   51.5000  38.5000   1.5000   C.3       1 RES1  37.1081
   383 37.11   51.5000  39.0000   1.5000   C.3       1 RES1  37.1081
   384 37.11   51.5000  39.5000   1.5000   C.3       1 RES1  37.1081
   385 18.38   49.5000  40.5000   5.5000   C.3       1 RES1  18.3820
   386 32.51   52.5000  40.5000   0.0000   C.3       1 RES1  32.5111
   387 32.51   52.5000  41.0000   0.0000   C.3       1 RES1  32.5111
   388 32.51   52.5000  41.5000   0.0000   C.3       1 RES1  32.5111
   389 40.89   50.5000  38.0000   3.0000   C.3       1 RES1  40.8944
   390 40.89   50.5000  38.0000   3.5000   C.3       1 RES1  40.8944
   391 40.89   50.5000  38.0000   4.0000   C.3       1 RES1  40.8944
   392 40.89   50.5000  38.5000   3.0000   C.3       1 RES1  40.8944
   393 40.89   50.5000  38.5000   3.5000   C.3       1 RES1  40.8944
   394 40.89   50.5000  38.5000   4.0000   C.3       1 RES1  40.8944
   395 40.89   50.5000  39.0000   3.0000   C.3       1 RES1  40.8944
   396 40.89   50.5000  39.0000   3.5000   C.3       1 RES1  40.8944
   397 40.89   50.5000  39.0000   4.0000   C.3       1 RES1  40.8944
   398 40.89   51.0000  38.0000   3.0000   C.3       1 RES1  40.8944
   399 40.89   51.0000  38.0000   3.5000   C.3       1 RES1  40.8944
   400 40.89   51.0000  38.0000   4.0000   C.3       1 RES1  40.8944
   401 40.89   51.0000  38.5000   3.0000   C.3       1 RES1  40.8944
   402 40.89   51.0000  38.5000   3.5000   C.3       1 RES1  40.8944
   403 40.89   51.0000  38.5000   4.0000   C.3       1 RES1  40.8944
   404 40.89   51.0000  39.0000   3.0000   C.3       1 RES1  40.8944
   405 40.89   51.0000  39.0000   3.5000   C.3       1 RES1  40.8944
   406 40.89   51.0000  39.0000   4.0000   C.3       1 RES1  40.8944
   407 40.89   51.5000  38.0000   3.0000   C.3       1 RES1  40.8944
   408 40.89   51.5000  38.0000   3.5000   C.3       1 RES1  40.8944
   409 40.89   51.5000  38.0000   4.0000   C.3       1 RES1  40.8944
   410 40.89   51.5000  38.5000   3.0000   C.3       1 RES1  40.8944
   411 40.89   51.5000  38.5000   3.5000   C.3       1 RES1  40.8944
   412 40.89   51.5000  38.5000   4.0000   C.3       1 RES1  40.8944
   413 40.89   51.5000  39.0000   3.0000   C.3       1 RES1  40.8944
   414 40.89   51.5000  39.0000   3.5000   C.3       1 RES1  40.8944
   415 40.89   51.5000  39.0000   4.0000   C.3       1 RES1  40.8944
   416 22.71   50.5000  41.0000   4.5000   C.3       1 RES1  22.7061
   417 22.71   51.0000  41.0000   4.5000   C.3       1 RES1  22.7061
   418 36.12   52.0000  38.5000   4.0000   C.3       1 RES1  36.1219
   419 36.12   52.0000  39.0000   3.5000   C.3       1 RES1  36.1219
   420 36.12   52.0000  39.0000   4.0000   C.3       1 RES1  36.1219
   421 36.12   52.0000  39.5000   3.0000   C.3       1 RES1  36.1219
   422 36.12   52.0000  39.5000   3.5000   C.3       1 RES1  36.1219
   423 36.12   52.0000  39.5000   4.0000   C.3       1 RES1  36.1219
   424 36.12   52.5000  38.5000   3.5000   C.3       1 RES1  36.1219
   425 36.12   52.5000  38.5000   4.0000   C.3       1 RES1  36.1219
   426 36.12   52.5000  39.0000   3.5000   C.3       1 RES1  36.1219
   427 36.12   52.5000  39.0000   4.0000   C.3       1 RES1  36.1219
   428 36.12   52.5000  39.5000   3.0000   C.3       1 RES1  36.1219
   429 36.12   52.5000  39.5000   3.5000   C.3       1 RES1  36.1219
   430 36.12   52.5000  39.5000   4.0000   C.3       1 RES1  36.1219
   431 28.68   52.0000  40.0000   0.0000   C.3       1 RES1  28.6848
   432 17.44   49.0000  38.0000   5.0000   C.3       1 RES1  17.4363
   433 17.44   49.5000  38.0000   5.0000   C.3       1 RES1  17.4363
   434 26.94   50.5000  39.5000   0.5000   C.3       1 RES1  26.9364
   435 29.19   49.0000  38.5000   4.5000   C.3       1 RES1  29.1896
   436 29.19   49.0000  39.0000   4.5000   C.3       1 RES1  29.1896
   437 29.19   49.0000  39.5000   4.5000   C.3       1 RES1  29.1896
   438 29.19   49.5000  38.5000   4.5000   C.3       1 RES1  29.1896
   439 29.19   50.0000  38.5000   4.5000   C.3       1 RES1  29.1896
   440 23.19   50.0000  37.5000   4.5000   C.3       1 RES1  23.1866
   441 19.19   48.5000  41.5000   4.5000   C.3       1 RES1  19.1909
   442 27.53   52.0000  40.0000  -0.5000   C.3       1 RES1  27.5278
   443 27.53   52.5000  40.0000  -0.5000   C.3       1 RES1  27.5278
   444 32.80   51.5000  38.0000   1.5000   C.3       1 RES1  32.7953
   445 32.80   52.0000  38.0000   1.5000   C.3       1 RES1  32.7953
   446 32.80   52.5000  38.0000   1.5000   C.3       1 RES1  32.7953
   447 32.80   52.5000  38.5000   1.5000   C.3       1 RES1  32.7953
   448 32.80   52.5000  39.0000   1.5000   C.3       1 RES1  32.7953
   449 26.19   50.5000  41.0000   4.0000   C.3       1 RES1  26.1887
   450 26.19   51.0000  41.0000   4.0000   C.3       1 RES1  26.1887
   451 30.99   51.5000  41.5000  -0.5000   C.3       1 RES1  30.9937
   452 30.99   52.0000  41.0000  -0.5000   C.3       1 RES1  30.9937
   453 30.99   52.0000  41.5000  -0.5000   C.3       1 RES1  30.9937
   454 30.99   52.5000  41.0000  -0.5000   C.3       1 RES1  30.9937
   455 30.99   52.5000  41.5000  -0.5000   C.3       1 RES1  30.9937
   456 18.62   50.0000  40.5000   5.5000   C.3       1 RES1  18.6247
   457 18.62   50.5000  40.5000   5.5000   C.3       1 RES1  18.6247
   458 18.62   51.0000  40.5000   5.5000   C.3       1 RES1  18.6247
   459 20.89   50.5000  39.5000  -1.0000   C.3       1 RES1  20.8876
   460 20.89   51.0000  39.5000  -1.0000   C.3       1 RES1  20.8876
   461 20.89   51.5000  39.5000  -1.0000   C.3       1 RES1  20.8876
   462 20.89   52.0000  40.0000  -1.0000   C.3       1 RES1  20.8876
   463 22.20   50.5000  41.5000   4.0000   C.3       1 RES1  22.1956
   464 22.69   50.5000  43.5000  -1.0000   C.3       1 RES1  22.6949
   465 22.69   51.0000  43.5000  -1.0000   C.3       1 RES1  22.6949
   466 22.69   51.5000  43.5000  -1.0000   C.3       1 RES1  22.6949
   467 30.50   52.0000  40.5000  -0.5000   C.3       1 RES1  30.5046
   468 30.50   52.5000  40.5000  -0.5000   C.3       1 RES1  30.5046
   469 21.04   50.0000  39.0000   5.5000   C.3       1 RES1  21.0372
   470 21.04   50.0000  39.5000   5.5000   C.3       1 RES1  21.0372
   471 21.04   50.0000  40.0000   5.5000   C.3       1 RES1  21.0372
   472 21.04   50.5000  39.0000   5.5000   C.3       1 RES1  21.0372
   473 21.04   50.5000  39.5000   5.5000   C.3       1 RES1  21.0372
   474 21.04   50.5000  40.0000   5.5000   C.3       1 RES1  21.0372
   475 21.04   51.0000  39.0000   5.5000   C.3       1 RES1  21.0372
   476 21.04   51.0000  39.5000   5.5000   C.3       1 RES1  21.0372
   477 21.04   51.0000  40.0000   5.5000   C.3       1 RES1  21.0372
   478 18.27   50.5000  42.0000   4.0000   C.3       1 RES1  18.2717
   479 25.14   50.5000  42.5000   2.0000   C.3       1 RES1  25.1358
   480 34.00   50.5000  41.5000   1.5000   C.3       1 RES1  34.0043
   481 34.00   50.5000  41.5000   2.0000   C.3       1 RES1  34.0043
   482 34.00   50.5000  41.5000   2.5000   C.3       1 RES1  34.0043
   483 24.39   49.0000  38.0000   4.5000   C.3       1 RES1  24.3925
   484 24.39   49.5000  38.0000   4.5000   C.3       1 RES1  24.3925
   485 33.55   50.5000  43.0000   0.0000   C.3       1 RES1  33.5464
   486 33.55   50.5000  43.0000   0.5000   C.3       1 RES1  33.5464
   487 33.55   50.5000  43.0000   1.0000   C.3       1 RES1  33.5464
   488 22.58   52.0000  43.5000   1.0000   C.3       1 RES1  22.5811
   489 28.34   50.5000  43.5000   1.0000   C.3       1 RES1  28.3384
   490 28.34   51.0000  43.0000   1.0000   C.3       1 RES1  28.3384
   491 28.34   51.0000  43.5000   1.0000   C.3       1 RES1  28.3384
   492 21.67   50.5000  43.0000   2.0000   C.3       1 RES1  21.6653
   493 18.23   51.0000  38.5000   5.5000   C.3       1 RES1  18.2278
   494 20.26   51.5000  41.0000   4.5000   C.3       1 RES1  20.2607
   495 18.38   52.0000  43.0000   1.5000   C.3       1 RES1  18.3809
   496 21.94   52.0000  39.5000  -0.5000   C.3       1 RES1  21.9377
   497 21.94   52.5000  39.5000  -0.5000   C.3       1 RES1  21.9377
   498 19.72   49.5000  37.5000   2.5000   C.3       1 RES1  19.7213
   499 19.72   49.5000  37.5000   3.0000   C.3       1 RES1  19.7213
   500 19.72   49.5000  37.5000   3.5000   C.3       1 RES1  19.7213
   501 19.72   50.5000  36.5000   2.5000   C.3       1 RES1  19.7213
   502 19.72   50.5000  36.5000   3.0000   C.3       1 RES1  19.7213
   503 19.72   50.5000  36.5000   3.5000   C.3       1 RES1  19.7213
   504 19.72   50.5000  37.5000   1.5000   C.3       1 RES1  19.7213
   505 19.72   51.0000  36.5000   2.5000   C.3       1 RES1  19.7213
   506 19.72   51.0000  36.5000   3.0000   C.3       1 RES1  19.7213
   507 19.72   51.0000  36.5000   3.5000   C.3       1 RES1  19.7213
   508 18.50   50.0000  41.0000   5.0000   C.3       1 RES1  18.4962
   509 18.50   50.5000  41.0000   5.0000   C.3       1 RES1  18.4962
   510 18.50   51.0000  41.0000   5.0000   C.3       1 RES1  18.4962
   511 23.52   52.0000  40.5000   4.0000   C.3       1 RES1  23.5231
   512 20.17   52.5000  40.5000   4.0000   C.3       1 RES1  20.1679
   513 18.04   48.0000  38.5000   3.0000   C.3       1 RES1  18.0355
   514 18.04   48.0000  38.5000   3.5000   C.3       1 RES1  18.0355
   515 18.04   48.0000  38.5000   4.0000   C.3       1 RES1  18.0355
   516 18.04   49.0000  37.5000   3.0000   C.3       1 RES1  18.0355
   517 18.04   49.0000  37.5000   3.5000   C.3       1 RES1  18.0355
   518 18.04   49.0000  37.5000   4.0000   C.3       1 RES1  18.0355
   519 18.04   49.5000  37.5000   4.0000   C.3       1 RES1  18.0355
   520 17.22   50.5000  40.5000  -1.5000   C.3       1 RES1  17.2180
   521 17.22   50.5000  41.0000  -1.5000   C.3       1 RES1  17.2180
   522 17.22   50.5000  41.5000  -1.5000   C.3       1 RES1  17.2180
   523 18.95   49.0000  40.0000  -2.0000   C.3       1 RES1  18.9497
   524 18.95   49.5000  40.0000  -2.0000   C.3       1 RES1  18.9497
   525 22.82   52.0000  41.0000   3.0000   C.3       1 RES1  22.8215
   526 24.05   51.0000  40.5000   5.0000   C.3       1 RES1  24.0510
   527 25.26   52.5000  40.5000   2.5000   C.3       1 RES1  25.2589
   528 17.39   49.5000  37.0000   2.5000   C.3       1 RES1  17.3935
   529 17.39   49.5000  37.0000   3.0000   C.3       1 RES1  17.3935
   530 17.39   49.5000  37.0000   3.5000   C.3       1 RES1  17.3935
   531 17.39   49.5000  37.5000   2.0000   C.3       1 RES1  17.3935
   532 17.39   50.0000  36.5000   2.5000   C.3       1 RES1  17.3935
   533 17.39   50.0000  36.5000   3.0000   C.3       1 RES1  17.3935
   534 17.39   50.0000  36.5000   3.5000   C.3       1 RES1  17.3935
   535 17.39   50.5000  36.5000   2.0000   C.3       1 RES1  17.3935
   536 17.39   50.5000  36.5000   4.0000   C.3       1 RES1  17.3935
   537 17.39   50.5000  37.0000   1.5000   C.3       1 RES1  17.3935
   538 17.39   51.0000  36.5000   2.0000   C.3       1 RES1  17.3935
   539 17.39   51.0000  36.5000   4.0000   C.3       1 RES1  17.3935
   540 34.01   50.5000  40.0000   1.0000   C.3       1 RES1  34.0079
   541 34.01   50.5000  40.5000   1.0000   C.3       1 RES1  34.0079
   542 34.01   50.5000  40.5000   1.5000   C.3       1 RES1  34.0079
   543 34.01   50.5000  41.0000   1.0000   C.3       1 RES1  34.0079
   544 34.01   50.5000  41.0000   1.5000   C.3       1 RES1  34.0079
   545 34.01   50.5000  41.0000   2.0000   C.3       1 RES1  34.0079
   546 34.01   51.0000  40.0000   1.0000   C.3       1 RES1  34.0079
   547 34.01   51.0000  40.5000   1.0000   C.3       1 RES1  34.0079
   548 34.01   51.0000  40.5000   1.5000   C.3       1 RES1  34.0079
   549 34.01   51.0000  41.0000   2.0000   C.3       1 RES1  34.0079
   550 20.71   48.5000  42.0000   3.5000   C.3       1 RES1  20.7058
   551 20.71   50.5000  42.0000   3.5000   C.3       1 RES1  20.7058
   552 36.36   52.0000  37.5000   2.5000   C.3       1 RES1  36.3641
   553 36.36   52.0000  37.5000   3.0000   C.3       1 RES1  36.3641
   554 36.36   52.0000  37.5000   3.5000   C.3       1 RES1  36.3641
   555 36.36   52.0000  38.0000   3.5000   C.3       1 RES1  36.3641
   556 36.36   52.0000  38.5000   3.5000   C.3       1 RES1  36.3641
   557 29.74   49.5000  40.5000   4.5000   C.3       1 RES1  29.7386
   558 27.95   52.5000  42.0000   1.5000   C.3       1 RES1  27.9514
   559 21.73   50.5000  42.5000   2.5000   C.3       1 RES1  21.7260
   560 28.26   51.5000  43.5000  -0.5000   C.3       1 RES1  28.2627
   561 28.26   51.5000  43.5000   0.0000   C.3       1 RES1  28.2627
   562 28.26   51.5000  43.5000   0.5000   C.3       1 RES1  28.2627
   563 21.75   52.0000  43.5000  -1.0000   C.3       1 RES1  21.7481
   564 24.23   50.5000  39.5000  -0.5000   C.3       1 RES1  24.2336
   565 24.23   50.5000  40.0000  -1.0000   C.3       1 RES1  24.2336
   566 24.23   51.0000  39.5000  -0.5000   C.3       1 RES1  24.2336
   567 24.23   51.0000  40.0000  -1.0000   C.3       1 RES1  24.2336
   568 24.23   51.5000  39.5000  -0.5000   C.3       1 RES1  24.2336
   569 24.23   51.5000  40.0000  -1.0000   C.3       1 RES1  24.2336
   570 24.23   51.5000  40.5000  -1.0000   C.3       1 RES1  24.2336
   571 24.23   51.5000  41.0000  -1.0000   C.3       1 RES1  24.2336
   572 33.47   50.5000  41.0000  -0.5000   C.3       1 RES1  33.4670
   573 33.47   50.5000  41.5000  -0.5000   C.3       1 RES1  33.4670
   574 33.47   50.5000  42.0000  -0.5000   C.3       1 RES1  33.4670
   575 43.30   48.5000  40.5000  -1.0000   C.3       1 RES1  43.3001
   576 43.30   49.0000  40.0000  -1.0000   C.3       1 RES1  43.3001
   577 27.67   52.0000  43.5000  -0.5000   C.3       1 RES1  27.6668
   578 27.67   52.0000  43.5000   0.0000   C.3       1 RES1  27.6668
   579 27.67   52.0000  43.5000   0.5000   C.3       1 RES1  27.6668
   580 24.85   51.0000  40.5000  -1.0000   C.3       1 RES1  24.8541
   581 24.85   51.0000  41.0000  -1.0000   C.3       1 RES1  24.8541
   582 24.85   51.0000  41.5000  -1.0000   C.3       1 RES1  24.8541
   583 28.69   49.5000  38.5000   1.5000   C.3       1 RES1  28.6877
   584 28.69   50.0000  38.0000   1.5000   C.3       1 RES1  28.6877
   585 28.69   50.0000  38.0000   2.0000   C.3       1 RES1  28.6877
   586 27.66   51.5000  42.5000   1.0000   C.3       1 RES1  27.6649
   587 27.92   52.0000  40.5000   3.0000   C.3       1 RES1  27.9240
   588 27.92   52.0000  40.5000   3.5000   C.3       1 RES1  27.9240
   589 23.41   49.0000  38.0000   2.5000   C.3       1 RES1  23.4064
   590 25.61   50.5000  42.0000   2.5000   C.3       1 RES1  25.6054
   591 20.61   52.5000  43.5000  -1.0000   C.3       1 RES1  20.6101
   592 20.61   52.5000  43.5000   1.0000   C.3       1 RES1  20.6101
   593 18.53   51.5000  37.0000   4.5000   C.3       1 RES1  18.5332
   594 23.44   52.0000  37.5000   4.5000   C.3       1 RES1  23.4411
   595 23.44   52.5000  37.5000   4.5000   C.3       1 RES1  23.4411
   596 22.58   51.0000  38.5000   5.0000   C.3       1 RES1  22.5782
   597 22.69   52.0000  44.0000  -0.5000   C.3       1 RES1  22.6894
   598 22.69   52.0000  44.0000   0.0000   C.3       1 RES1  22.6894
   599 22.69   52.0000  44.0000   0.5000   C.3       1 RES1  22.6894
   600 19.47   51.5000  36.5000   2.0000   C.3       1 RES1  19.4713
   601 19.47   52.0000  36.5000   2.0000   C.3       1 RES1  19.4713
   602 19.47   52.5000  36.5000   2.0000   C.3       1 RES1  19.4713
   603 21.05   51.5000  37.5000   1.0000   C.3       1 RES1  21.0470
   604 20.47   48.5000  38.0000   4.5000   C.3       1 RES1  20.4653
   605 27.27   52.5000  39.0000   1.0000   C.3       1 RES1  27.2695
   606 23.85   51.5000  44.0000  -0.5000   C.3       1 RES1  23.8498
   607 23.85   51.5000  44.0000   0.0000   C.3       1 RES1  23.8498
   608 23.85   51.5000  44.0000   0.5000   C.3       1 RES1  23.8498
   609 22.31   51.0000  41.5000   3.5000   C.3       1 RES1  22.3056
   610 23.26   52.0000  39.5000   0.0000   C.3       1 RES1  23.2575
   611 23.26   52.5000  39.5000   0.0000   C.3       1 RES1  23.2575
   612 23.25   51.5000  41.5000  -1.0000   C.3       1 RES1  23.2453
   613 33.97   50.5000  40.5000   0.0000   C.3       1 RES1  33.9692
   614 33.97   50.5000  40.5000   0.5000   C.3       1 RES1  33.9692
   615 33.97   50.5000  41.0000   0.0000   C.3       1 RES1  33.9692
   616 33.97   50.5000  41.0000   0.5000   C.3       1 RES1  33.9692
   617 33.97   50.5000  41.5000   0.0000   C.3       1 RES1  33.9692
   618 33.97   50.5000  41.5000   0.5000   C.3       1 RES1  33.9692
   619 33.97   50.5000  41.5000   1.0000   C.3       1 RES1  33.9692
   620 28.39   51.5000  41.5000   2.0000   C.3       1 RES1  28.3922
   621 23.78   52.5000  40.5000   3.5000   C.3       1 RES1  23.7827
   622 27.09   51.0000  42.5000   1.5000   C.3       1 RES1  27.0914
   623 28.09   52.0000  40.0000   4.0000   C.3       1 RES1  28.0862
   624 28.09   52.5000  40.0000   4.0000   C.3       1 RES1  28.0862
   625 28.39   52.5000  40.0000   0.0000   C.3       1 RES1  28.3874
   626 22.23   52.0000  41.0000   3.5000   C.3       1 RES1  22.2314
   627 20.74   49.5000  39.0000   5.5000   C.3       1 RES1  20.7420
   628 20.74   49.5000  39.5000   5.5000   C.3       1 RES1  20.7420
   629 20.74   49.5000  40.0000   5.5000   C.3       1 RES1  20.7420
   630 25.50   50.0000  37.0000   2.5000   C.3       1 RES1  25.4976
   631 25.50   50.0000  37.0000   3.0000   C.3       1 RES1  25.4976
   632 25.50   50.0000  37.0000   3.5000   C.3       1 RES1  25.4976
   633 25.50   50.0000  37.5000   2.0000   C.3       1 RES1  25.4976
   634 25.50   50.5000  37.0000   2.0000   C.3       1 RES1  25.4976
   635 25.50   50.5000  37.0000   4.0000   C.3       1 RES1  25.4976
   636 25.50   51.0000  37.0000   2.0000   C.3       1 RES1  25.4976
   637 25.50   51.0000  37.0000   4.0000   C.3       1 RES1  25.4976
   638 25.50   51.5000  37.0000   2.0000   C.3       1 RES1  25.4976
   639 25.50   51.5000  37.0000   4.0000   C.3       1 RES1  25.4976
   640 27.05   48.5000  38.5000   3.0000   C.3       1 RES1  27.0533
   641 27.05   48.5000  38.5000   3.5000   C.3       1 RES1  27.0533
   642 27.05   48.5000  38.5000   4.0000   C.3       1 RES1  27.0533
   643 27.05   48.5000  39.0000   3.0000   C.3       1 RES1  27.0533
   644 27.05   48.5000  39.0000   3.5000   C.3       1 RES1  27.0533
   645 27.05   48.5000  39.0000   4.0000   C.3       1 RES1  27.0533
   646 27.05   49.0000  38.0000   3.0000   C.3       1 RES1  27.0533
   647 27.05   49.0000  38.0000   3.5000   C.3       1 RES1  27.0533
   648 27.05   49.0000  38.0000   4.0000   C.3       1 RES1  27.0533
   649 27.05   49.5000  38.0000   3.0000   C.3       1 RES1  27.0533
   650 27.05   49.5000  38.0000   3.5000   C.3       1 RES1  27.0533
   651 27.05   49.5000  38.0000   4.0000   C.3       1 RES1  27.0533
   652 17.84   51.0000  39.0000   0.0000   C.3       1 RES1  17.8395
   653 31.88   51.5000  42.0000  -0.5000   C.3       1 RES1  31.8822
   654 31.88   51.5000  42.5000  -0.5000   C.3       1 RES1  31.8822
   655 31.88   51.5000  42.5000   0.0000   C.3       1 RES1  31.8822
   656 31.88   51.5000  42.5000   0.5000   C.3       1 RES1  31.8822
   657 31.88   51.5000  43.0000  -0.5000   C.3       1 RES1  31.8822
   658 31.88   51.5000  43.0000   0.0000   C.3       1 RES1  31.8822
   659 31.88   51.5000  43.0000   0.5000   C.3       1 RES1  31.8822
   660 31.88   52.0000  42.0000  -0.5000   C.3       1 RES1  31.8822
   661 31.88   52.0000  42.5000  -0.5000   C.3       1 RES1  31.8822
   662 31.88   52.0000  42.5000   0.0000   C.3       1 RES1  31.8822
   663 31.88   52.0000  42.5000   0.5000   C.3       1 RES1  31.8822
   664 31.88   52.0000  43.0000  -0.5000   C.3       1 RES1  31.8822
   665 31.88   52.0000  43.0000   0.0000   C.3       1 RES1  31.8822
   666 31.88   52.0000  43.0000   0.5000   C.3       1 RES1  31.8822
   667 31.88   52.5000  42.0000  -0.5000   C.3       1 RES1  31.8822
   668 31.88   52.5000  42.5000  -0.5000   C.3       1 RES1  31.8822
   669 31.88   52.5000  42.5000   0.0000   C.3       1 RES1  31.8822
   670 31.88   52.5000  42.5000   0.5000   C.3       1 RES1  31.8822
   671 31.88   52.5000  43.0000  -0.5000   C.3       1 RES1  31.8822
   672 31.88   52.5000  43.0000   0.0000   C.3       1 RES1  31.8822
   673 31.88   52.5000  43.0000   0.5000   C.3       1 RES1  31.8822
   674 19.47   51.0000  41.5000   4.0000   C.3       1 RES1  19.4674
   675 27.66   51.5000  40.5000   4.0000   C.3       1 RES1  27.6640
   676 24.96   52.5000  43.0000   1.0000   C.3       1 RES1  24.9559
   677 19.19   51.5000  41.5000   3.5000   C.3       1 RES1  19.1872
   678 19.65   51.5000  44.0000  -1.0000   C.3       1 RES1  19.6505
   679 34.07   50.5000  40.5000   2.0000   C.3       1 RES1  34.0738
   680 34.07   51.0000  40.5000   2.0000   C.3       1 RES1  34.0738
   681 34.07   51.5000  40.5000   2.0000   C.3       1 RES1  34.0738
   682 18.91   51.5000  43.5000   1.5000   C.3       1 RES1  18.9138
   683 26.02   48.5000  40.0000  -1.5000   C.3       1 RES1  26.0187
   684 23.73   48.5000  38.5000   4.5000   C.3       1 RES1  23.7282
   685 23.73   48.5000  39.0000   4.5000   C.3       1 RES1  23.7282
   686 23.73   48.5000  39.5000   4.5000   C.3       1 RES1  23.7282
   687 25.96   51.0000  42.0000   2.0000   C.3       1 RES1  25.9615
   688 29.58   50.0000  37.5000   2.5000   C.3       1 RES1  29.5820
   689 29.58   50.0000  37.5000   3.0000   C.3       1 RES1  29.5820
   690 29.58   50.0000  37.5000   3.5000   C.3       1 RES1  29.5820
   691 29.58   50.0000  38.0000   2.5000   C.3       1 RES1  29.5820
   692 29.58   50.5000  37.0000   2.5000   C.3       1 RES1  29.5820
   693 29.58   50.5000  37.0000   3.0000   C.3       1 RES1  29.5820
   694 29.58   50.5000  37.0000   3.5000   C.3       1 RES1  29.5820
   695 29.58   50.5000  37.5000   2.0000   C.3       1 RES1  29.5820
   696 29.58   50.5000  38.0000   2.0000   C.3       1 RES1  29.5820
   697 29.58   51.0000  37.0000   2.5000   C.3       1 RES1  29.5820
   698 29.58   51.0000  37.0000   3.0000   C.3       1 RES1  29.5820
   699 29.58   51.0000  37.0000   3.5000   C.3       1 RES1  29.5820
   700 29.58   51.0000  37.5000   2.0000   C.3       1 RES1  29.5820
   701 29.58   51.5000  37.0000   2.5000   C.3       1 RES1  29.5820
   702 29.58   51.5000  37.0000   3.0000   C.3       1 RES1  29.5820
   703 29.58   51.5000  37.0000   3.5000   C.3       1 RES1  29.5820
   704 33.15   50.5000  40.5000  -0.5000   C.3       1 RES1  33.1473
   705 19.47   52.0000  36.5000   4.0000   C.3       1 RES1  19.4705
   706 19.47   52.5000  36.5000   4.0000   C.3       1 RES1  19.4705
   707 28.92   51.0000  41.0000   3.5000   C.3       1 RES1  28.9163
   708 30.77   52.0000  40.0000   3.0000   C.3       1 RES1  30.7729
   709 30.77   52.0000  40.0000   3.5000   C.3       1 RES1  30.7729
   710 30.77   52.5000  40.0000   2.5000   C.3       1 RES1  30.7729
   711 30.77   52.5000  40.0000   3.0000   C.3       1 RES1  30.7729
   712 30.77   52.5000  40.0000   3.5000   C.3       1 RES1  30.7729
   713 20.25   52.0000  38.0000   5.0000   C.3       1 RES1  20.2535
   714 20.25   52.0000  38.5000   5.0000   C.3       1 RES1  20.2535
   715 20.25   52.0000  39.0000   5.0000   C.3       1 RES1  20.2535
   716 20.25   52.5000  38.0000   5.0000   C.3       1 RES1  20.2535
   717 20.25   52.5000  38.5000   5.0000   C.3       1 RES1  20.2535
   718 20.25   52.5000  39.0000   5.0000   C.3       1 RES1  20.2535
   719 18.03   50.0000  38.0000   5.0000   C.3       1 RES1  18.0337
   720 18.03   50.5000  37.0000   4.5000   C.3       1 RES1  18.0337
   721 18.03   50.5000  37.5000   5.0000   C.3       1 RES1  18.0337
   722 18.03   51.0000  37.0000   4.5000   C.3       1 RES1  18.0337
   723 18.03   51.0000  37.5000   5.0000   C.3       1 RES1  18.0337
   724 18.03   51.5000  37.5000   5.0000   C.3       1 RES1  18.0337
   725 25.17   51.5000  38.0000   1.0000   C.3       1 RES1  25.1664
   726 25.17   52.0000  38.0000   1.0000   C.3       1 RES1  25.1664
   727 25.17   52.5000  38.0000   1.0000   C.3       1 RES1  25.1664
   728 19.15   51.5000  42.0000   3.0000   C.3       1 RES1  19.1502
   729 29.87   50.0000  40.5000   4.5000   C.3       1 RES1  29.8734
   730 29.87   50.5000  40.5000   4.5000   C.3       1 RES1  29.8734
   731 29.87   51.0000  40.5000   4.5000   C.3       1 RES1  29.8734
   732 30.48   51.0000  42.0000  -0.5000   C.3       1 RES1  30.4829
   733 30.48   51.0000  42.5000  -0.5000   C.3       1 RES1  30.4829
   734 30.48   51.0000  43.0000  -0.5000   C.3       1 RES1  30.4829
   735 30.48   51.0000  43.0000   0.0000   C.3       1 RES1  30.4829
   736 30.48   51.0000  43.0000   0.5000   C.3       1 RES1  30.4829
   737 29.32   50.5000  38.0000   1.5000   C.3       1 RES1  29.3204
   738 23.78   52.0000  37.0000   4.0000   C.3       1 RES1  23.7783
   739 17.34   50.5000  44.5000  -1.0000   C.3       1 RES1  17.3427
   740 17.34   51.0000  44.5000  -1.0000   C.3       1 RES1  17.3427
   741 23.32   48.5000  38.0000   3.0000   C.3       1 RES1  23.3180
   742 23.32   48.5000  38.0000   3.5000   C.3       1 RES1  23.3180
   743 23.32   48.5000  38.0000   4.0000   C.3       1 RES1  23.3180
   744 23.32   48.5000  38.5000   2.5000   C.3       1 RES1  23.3180
   745 23.32   48.5000  39.0000   2.5000   C.3       1 RES1  23.3180
   746 23.32   48.5000  39.5000   2.5000   C.3       1 RES1  23.3180
   747 36.07   49.0000  38.5000   3.0000   C.3       1 RES1  36.0711
   748 36.07   49.0000  38.5000   3.5000   C.3       1 RES1  36.0711
   749 36.07   49.0000  38.5000   4.0000   C.3       1 RES1  36.0711
   750 36.07   49.0000  39.0000   3.0000   C.3       1 RES1  36.0711
   751 36.07   49.0000  39.0000   3.5000   C.3       1 RES1  36.0711
   752 36.07   49.0000  39.0000   4.0000   C.3       1 RES1  36.0711
   753 36.07   49.0000  39.5000   3.0000   C.3       1 RES1  36.0711
   754 36.07   49.0000  39.5000   3.5000   C.3       1 RES1  36.0711
   755 36.07   49.0000  39.5000   4.0000   C.3       1 RES1  36.0711
   756 36.07   49.5000  38.5000   3.0000   C.3       1 RES1  36.0711
   757 36.07   49.5000  38.5000   3.5000   C.3       1 RES1  36.0711
   758 36.07   49.5000  38.5000   4.0000   C.3       1 RES1  36.0711
   759 36.07   50.0000  38.5000   3.0000   C.3       1 RES1  36.0711
   760 36.07   50.0000  38.5000   3.5000   C.3       1 RES1  36.0711
   761 36.07   50.0000  38.5000   4.0000   C.3       1 RES1  36.0711
   762 33.73   51.0000  41.5000   0.0000   C.3       1 RES1  33.7268
   763 33.73   51.5000  40.5000   0.0000   C.3       1 RES1  33.7268
   764 33.73   51.5000  40.5000   0.5000   C.3       1 RES1  33.7268
   765 33.73   51.5000  40.5000   1.0000   C.3       1 RES1  33.7268
   766 33.73   51.5000  41.0000   0.0000   C.3       1 RES1  33.7268
   767 33.73   51.5000  41.5000   0.0000   C.3       1 RES1  33.7268
   768 33.73   52.0000  40.5000   0.0000   C.3       1 RES1  33.7268
   769 33.73   52.0000  40.5000   0.5000   C.3       1 RES1  33.7268
   770 33.73   52.0000  40.5000   1.0000   C.3       1 RES1  33.7268
   771 33.73   52.0000  41.0000   0.0000   C.3       1 RES1  33.7268
   772 33.73   52.0000  41.5000   0.0000   C.3       1 RES1  33.7268
   773 20.71   49.0000  42.0000   4.0000   C.3       1 RES1  20.7069
   774 20.71   49.5000  42.0000   4.0000   C.3       1 RES1  20.7069
   775 20.71   50.0000  42.0000   4.0000   C.3       1 RES1  20.7069
   776 18.64   49.5000  38.5000   5.5000   C.3       1 RES1  18.6440
   777 18.64   50.0000  38.5000   5.5000   C.3       1 RES1  18.6440
   778 18.64   50.5000  38.5000   5.5000   C.3       1 RES1  18.6440
   779 33.60   51.0000  39.0000   4.5000   C.3       1 RES1  33.6019
   780 33.60   51.0000  39.5000   4.5000   C.3       1 RES1  33.6019
   781 33.60   51.0000  40.0000   4.5000   C.3       1 RES1  33.6019
   782 32.03   49.0000  40.5000   2.5000   C.3       1 RES1  32.0302
   783 32.03   49.0000  41.5000   3.0000   C.3       1 RES1  32.0302
   784 32.03   49.0000  41.5000   3.5000   C.3       1 RES1  32.0302
   785 32.03   49.5000  41.5000   3.0000   C.3       1 RES1  32.0302
   786 32.03   49.5000  41.5000   3.5000   C.3       1 RES1  32.0302
   787 32.03   50.0000  41.5000   3.0000   C.3       1 RES1  32.0302
   788 32.03   50.0000  41.5000   3.5000   C.3       1 RES1  32.0302
   789 19.69   51.5000  43.0000   1.5000   C.3       1 RES1  19.6861
   790 20.63   52.0000  40.5000   4.5000   C.3       1 RES1  20.6317
   791 23.82   51.5000  40.5000   4.5000   C.3       1 RES1  23.8179
   792 22.15   50.5000  44.0000   1.0000   C.3       1 RES1  22.1527
   793 22.15   51.0000  44.0000   1.0000   C.3       1 RES1  22.1527
   794 19.03   52.0000  44.0000  -1.0000   C.3       1 RES1  19.0303
   795 21.35   52.5000  41.0000   2.5000   C.3       1 RES1  21.3500
   796 32.30   52.0000  40.0000   2.5000   C.3       1 RES1  32.2969
   797 32.30   52.0000  40.5000   2.5000   C.3       1 RES1  32.2969
   798 27.66   51.5000  37.5000   1.5000   C.3       1 RES1  27.6557
   799 27.66   52.0000  37.5000   1.5000   C.3       1 RES1  27.6557
   800 27.66   52.5000  37.5000   1.5000   C.3       1 RES1  27.6557
   801 20.17   52.0000  37.0000   4.5000   C.3       1 RES1  20.1711
   802 20.17   52.5000  37.0000   4.5000   C.3       1 RES1  20.1711
   803 22.36   52.5000  42.5000   1.5000   C.3       1 RES1  22.3642
   804 29.34   50.5000  42.5000  -0.5000   C.3       1 RES1  29.3447
   805 29.34   50.5000  43.0000  -0.5000   C.3       1 RES1  29.3447
   806 29.34   50.5000  43.5000  -0.5000   C.3       1 RES1  29.3447
   807 29.34   50.5000  43.5000   0.0000   C.3       1 RES1  29.3447
   808 29.34   50.5000  43.5000   0.5000   C.3       1 RES1  29.3447
   809 29.34   51.0000  43.5000  -0.5000   C.3       1 RES1  29.3447
   810 29.34   51.0000  43.5000   0.0000   C.3       1 RES1  29.3447
   811 29.34   51.0000  43.5000   0.5000   C.3       1 RES1  29.3447
   812 26.04   50.5000  41.5000   3.0000   C.3       1 RES1  26.0429
   813 21.92   50.5000  43.5000   1.5000   C.3       1 RES1  21.9200
   814 21.92   51.0000  43.5000   1.5000   C.3       1 RES1  21.9200
   815 23.57   51.0000  42.0000  -1.0000   C.3       1 RES1  23.5667
   816 23.57   51.0000  42.5000  -1.0000   C.3       1 RES1  23.5667
   817 23.57   51.0000  43.0000  -1.0000   C.3       1 RES1  23.5667
   818 23.01   51.5000  41.0000   4.0000   C.3       1 RES1  23.0063
   819 17.98   51.5000  39.0000   0.0000   C.3       1 RES1  17.9776
   820 17.98   52.0000  39.0000   0.0000   C.3       1 RES1  17.9776
   821 17.98   52.5000  39.0000   0.0000   C.3       1 RES1  17.9776
   822 30.96   52.5000  37.5000   2.5000   C.3       1 RES1  30.9590
   823 30.96   52.5000  37.5000   3.0000   C.3       1 RES1  30.9590
   824 30.96   52.5000  37.5000   3.5000   C.3       1 RES1  30.9590
   825 28.21   51.5000  39.5000   4.5000   C.3       1 RES1  28.2123
   826 28.21   51.5000  40.0000   4.5000   C.3       1 RES1  28.2123
   827 36.10   49.0000  40.5000  -1.5000   C.3       1 RES1  36.0958
   828 22.36   50.0000  37.0000   2.0000   C.3       1 RES1  22.3635
   829 22.36   50.0000  37.0000   4.0000   C.3       1 RES1  22.3635
   830 33.84   51.0000  41.0000   2.5000   C.3       1 RES1  33.8405
   831 33.84   51.0000  41.0000   3.0000   C.3       1 RES1  33.8405
   832 18.80   52.0000  41.5000   3.0000   C.3       1 RES1  18.7964
   833 24.73   49.5000  38.0000   1.5000   C.3       1 RES1  24.7268
   834 24.73   49.5000  38.0000   2.0000   C.3       1 RES1  24.7268
   835 24.73   49.5000  38.5000   1.0000   C.3       1 RES1  24.7268
   836 24.73   50.0000  38.0000   1.0000   C.3       1 RES1  24.7268
   837 24.73   50.5000  38.0000   1.0000   C.3       1 RES1  24.7268
   838 24.73   51.0000  38.0000   1.0000   C.3       1 RES1  24.7268
   839 21.12   52.5000  40.0000  -1.0000   C.3       1 RES1  21.1161
   840 26.21   51.5000  41.5000   2.5000   C.3       1 RES1  26.2097
   841 18.39   49.5000  41.0000   5.0000   C.3       1 RES1  18.3889
   842 18.32   50.5000  44.0000   1.5000   C.3       1 RES1  18.3193
   843 18.32   51.0000  44.0000   1.5000   C.3       1 RES1  18.3193
   844 21.72   49.0000  40.5000  -2.0000   C.3       1 RES1  21.7226
   845 21.72   49.5000  40.5000  -2.0000   C.3       1 RES1  21.7226
   846 18.45   50.5000  44.5000   1.0000   C.3       1 RES1  18.4487
   847 18.45   51.0000  44.5000   1.0000   C.3       1 RES1  18.4487
   848 29.62   52.5000  42.5000   1.0000   C.3       1 RES1  29.6182
   849 19.62   48.0000  40.5000  -1.5000   C.3       1 RES1  19.6185
   850 37.41   51.5000  38.0000   2.0000   C.3       1 RES1  37.4094
   851 37.41   51.5000  38.5000   2.0000   C.3       1 RES1  37.4094
   852 37.41   52.0000  38.0000   2.0000   C.3       1 RES1  37.4094
   853 37.41   52.0000  38.0000   2.5000   C.3       1 RES1  37.4094
   854 37.41   52.0000  38.0000   3.0000   C.3       1 RES1  37.4094
   855 37.41   52.0000  38.5000   2.0000   C.3       1 RES1  37.4094
   856 37.41   52.0000  38.5000   2.5000   C.3       1 RES1  37.4094
   857 37.41   52.0000  38.5000   3.0000   C.3       1 RES1  37.4094
   858 37.41   52.0000  39.0000   2.0000   C.3       1 RES1  37.4094
   859 37.41   52.0000  39.0000   2.5000   C.3       1 RES1  37.4094
   860 37.41   52.0000  39.0000   3.0000   C.3       1 RES1  37.4094
   861 37.41   52.5000  38.0000   2.0000   C.3       1 RES1  37.4094
   862 37.41   52.5000  38.0000   2.5000   C.3       1 RES1  37.4094
   863 37.41   52.5000  38.0000   3.0000   C.3       1 RES1  37.4094
   864 37.41   52.5000  38.5000   2.0000   C.3       1 RES1  37.4094
   865 37.41   52.5000  38.5000   2.5000   C.3       1 RES1  37.4094
   866 37.41   52.5000  38.5000   3.0000   C.3       1 RES1  37.4094
   867 37.41   52.5000  39.0000   2.0000   C.3       1 RES1  37.4094
   868 37.41   52.5000  39.0000   2.5000   C.3       1 RES1  37.4094
   869 37.41   52.5000  39.0000   3.0000   C.3       1 RES1  37.4094
   870 17.50   52.5000  43.5000   1.5000   C.3       1 RES1  17.5038
   871 34.02   51.0000  41.0000   0.5000   C.3       1 RES1  34.0174
   872 34.02   51.0000  41.0000   1.0000   C.3       1 RES1  34.0174
   873 34.02   51.0000  41.0000   1.5000   C.3       1 RES1  34.0174
   874 34.02   51.0000  41.5000   0.5000   C.3       1 RES1  34.0174
   875 34.02   51.0000  41.5000   1.0000   C.3       1 RES1  34.0174
   876 34.02   51.0000  41.5000   1.5000   C.3       1 RES1  34.0174
   877 34.02   51.0000  42.0000   0.5000   C.3       1 RES1  34.0174
   878 34.02   51.0000  42.0000   1.0000   C.3       1 RES1  34.0174
   879 34.02   51.0000  42.0000   1.5000   C.3       1 RES1  34.0174
   880 34.02   51.5000  41.0000   0.5000   C.3       1 RES1  34.0174
   881 34.02   51.5000  41.0000   1.0000   C.3       1 RES1  34.0174
   882 34.02   51.5000  41.0000   1.5000   C.3       1 RES1  34.0174
   883 34.02   51.5000  41.5000   0.5000   C.3       1 RES1  34.0174
   884 34.02   51.5000  41.5000   1.0000   C.3       1 RES1  34.0174
   885 34.02   51.5000  41.5000   1.5000   C.3       1 RES1  34.0174
   886 34.02   51.5000  42.0000   0.5000   C.3       1 RES1  34.0174
   887 34.02   51.5000  42.0000   1.0000   C.3       1 RES1  34.0174
   888 34.02   51.5000  42.0000   1.5000   C.3       1 RES1  34.0174
   889 34.02   52.0000  41.0000   0.5000   C.3       1 RES1  34.0174
   890 34.02   52.0000  41.0000   1.0000   C.3       1 RES1  34.0174
   891 34.02   52.0000  41.0000   1.5000   C.3       1 RES1  34.0174
   892 34.02   52.0000  41.5000   0.5000   C.3       1 RES1  34.0174
   893 34.02   52.0000  41.5000   1.0000   C.3       1 RES1  34.0174
   894 34.02   52.0000  41.5000   1.5000   C.3       1 RES1  34.0174
   895 34.02   52.0000  42.0000   0.5000   C.3       1 RES1  34.0174
   896 34.02   52.0000  42.0000   1.0000   C.3       1 RES1  34.0174
   897 34.02   52.0000  42.0000   1.5000   C.3       1 RES1  34.0174
   898 22.28   51.5000  36.5000   2.5000   C.3       1 RES1  22.2812
   899 22.28   51.5000  36.5000   3.0000   C.3       1 RES1  22.2812
   900 22.28   51.5000  36.5000   3.5000   C.3       1 RES1  22.2812
   901 34.25   50.0000  40.5000   4.0000   C.3       1 RES1  34.2543
   902 34.25   50.5000  40.5000   4.0000   C.3       1 RES1  34.2543
   903 34.25   51.0000  40.5000   4.0000   C.3       1 RES1  34.2543
   904 19.00   51.0000  43.0000   2.0000   C.3       1 RES1  19.0022
   905 19.39   52.5000  41.5000   2.5000   C.3       1 RES1  19.3867
   906 33.37   52.5000  38.0000   3.5000   C.3       1 RES1  33.3652
   907 25.96   48.0000  40.0000  -1.0000   C.3       1 RES1  25.9640
   908 27.04   52.0000  41.5000   2.0000   C.3       1 RES1  27.0366
   909 25.73   52.5000  38.5000   1.0000   C.3       1 RES1  25.7255
   910 21.69   49.5000  38.0000   1.0000   C.3       1 RES1  21.6874
   911 24.86   50.5000  40.5000  -1.0000   C.3       1 RES1  24.8605
   912 19.33   48.5000  42.0000   4.0000   C.3       1 RES1  19.3283
   913 22.98   48.5000  41.5000   4.0000   C.3       1 RES1  22.9819
   914 26.44   50.0000  37.5000   4.0000   C.3       1 RES1  26.4360
   915 26.44   50.0000  38.0000   4.5000   C.3       1 RES1  26.4360
   916 26.44   50.5000  37.5000   4.5000   C.3       1 RES1  26.4360
   917 26.44   51.0000  37.5000   4.5000   C.3       1 RES1  26.4360
   918 26.44   51.5000  37.5000   4.5000   C.3       1 RES1  26.4360
   919 26.87   49.0000  41.5000   4.0000   C.3       1 RES1  26.8657
   920 26.87   49.5000  41.5000   4.0000   C.3       1 RES1  26.8657
   921 26.87   50.0000  41.5000   4.0000   C.3       1 RES1  26.8657
   922 22.94   50.5000  42.5000  -1.0000   C.3       1 RES1  22.9413
   923 22.94   50.5000  43.0000  -1.0000   C.3       1 RES1  22.9413
   924 20.13   50.5000  44.5000  -0.5000   C.3       1 RES1  20.1289
   925 20.13   50.5000  44.5000   0.0000   C.3       1 RES1  20.1289
   926 20.13   50.5000  44.5000   0.5000   C.3       1 RES1  20.1289
   927 20.13   51.0000  44.5000  -0.5000   C.3       1 RES1  20.1289
   928 20.13   51.0000  44.5000   0.0000   C.3       1 RES1  20.1289
   929 20.13   51.0000  44.5000   0.5000   C.3       1 RES1  20.1289
   930 37.55   50.5000  40.5000   2.5000   C.3       1 RES1  37.5545
   931 37.55   50.5000  40.5000   3.0000   C.3       1 RES1  37.5545
   932 37.55   50.5000  40.5000   3.5000   C.3       1 RES1  37.5545
   933 37.55   51.0000  39.5000   3.5000   C.3       1 RES1  37.5545
   934 37.55   51.0000  40.0000   3.5000   C.3       1 RES1  37.5545
   935 37.55   51.0000  40.5000   2.5000   C.3       1 RES1  37.5545
   936 37.55   51.0000  40.5000   3.0000   C.3       1 RES1  37.5545
   937 37.55   51.0000  40.5000   3.5000   C.3       1 RES1  37.5545
   938 19.86   51.0000  37.5000   1.0000   C.3       1 RES1  19.8647
   939 23.19   52.5000  37.0000   4.0000   C.3       1 RES1  23.1924
   940 22.43   51.5000  41.5000   3.0000   C.3       1 RES1  22.4330
   941 34.38   51.5000  40.5000   2.5000   C.3       1 RES1  34.3841
   942 34.38   51.5000  40.5000   3.0000   C.3       1 RES1  34.3841
   943 34.38   51.5000  40.5000   3.5000   C.3       1 RES1  34.3841
   944 25.71   50.5000  44.0000  -0.5000   C.3       1 RES1  25.7089
   945 25.71   50.5000  44.0000   0.0000   C.3       1 RES1  25.7089
   946 25.71   50.5000  44.0000   0.5000   C.3       1 RES1  25.7089
   947 25.71   51.0000  44.0000  -0.5000   C.3       1 RES1  25.7089
   948 25.71   51.0000  44.0000   0.0000   C.3       1 RES1  25.7089
   949 25.71   51.0000  44.0000   0.5000   C.3       1 RES1  25.7089
   950 25.33   51.0000  42.0000   2.5000   C.3       1 RES1  25.3315
   951 29.54   48.0000  40.5000  -1.0000   C.3       1 RES1  29.5378
   952 29.54   48.5000  40.5000  -1.5000   C.3       1 RES1  29.5378
   953 19.84   51.5000  40.5000   5.0000   C.3       1 RES1  19.8398
   954 33.78   51.0000  41.5000   2.0000   C.3       1 RES1  33.7753
   955 33.78   51.0000  41.5000   2.5000   C.3       1 RES1  33.7753
   956 32.73   52.0000  40.0000   0.5000   C.3       1 RES1  32.7332
   957 32.73   52.5000  40.0000   0.5000   C.3       1 RES1  32.7332
   958 17.61   52.0000  42.0000   2.5000   C.3       1 RES1  17.6073
   959 33.84   50.5000  40.0000   0.0000   C.3       1 RES1  33.8355
   960 33.84   50.5000  40.0000   0.5000   C.3       1 RES1  33.8355
   961 33.84   51.0000  40.0000   0.0000   C.3       1 RES1  33.8355
   962 33.84   51.0000  40.0000   0.5000   C.3       1 RES1  33.8355
   963 33.84   51.0000  40.5000   0.0000   C.3       1 RES1  33.8355
   964 33.84   51.0000  40.5000   0.5000   C.3       1 RES1  33.8355
   965 33.84   51.0000  41.0000   0.0000   C.3       1 RES1  33.8355
   966 33.29   51.5000  40.0000   0.0000   C.3       1 RES1  33.2855
   967 33.29   51.5000  40.0000   0.5000   C.3       1 RES1  33.2855
   968 33.29   51.5000  40.0000   1.0000   C.3       1 RES1  33.2855
   969 33.03   52.0000  40.0000   1.0000   C.3       1 RES1  33.0267
   970 33.03   52.0000  40.0000   1.5000   C.3       1 RES1  33.0267
   971 33.03   52.0000  40.0000   2.0000   C.3       1 RES1  33.0267
   972 33.03   52.0000  40.5000   1.5000   C.3       1 RES1  33.0267
   973 33.03   52.0000  40.5000   2.0000   C.3       1 RES1  33.0267
   974 33.03   52.0000  41.0000   2.0000   C.3       1 RES1  33.0267
@<TRIPOS>SUBSTRUCTURE
     1 RES1        1 GROUP             0 ****  ****    0  
