@<TRIPOS>MOLECULE
51.3114
    33    36     1     0     0
SMALL
NO_CHARGES
****
Generated from the CSD

@<TRIPOS>ATOM
     1 C       10.6747  -8.3515  16.3450   C.ar      1 RES1   0.0000
     2 C       10.3115  -8.1615  17.6795   C.ar      1 RES1   0.0000
     3 C       10.5450  -6.8207  17.9885   C.ar      1 RES1   0.0000
     4 C       10.9879  -6.2150  16.8203   C.ar      1 RES1   0.0000
     5 N       11.0742  -7.1577  15.8637   N.ar      1 RES1   0.0000
     6 N       11.2467  -4.8971  16.7747   N.ar      1 RES1   0.0000
     7 C       11.0105  -4.1627  17.8819   C.ar      1 RES1   0.0000
     8 N       10.5828  -4.7270  19.0336   N.ar      1 RES1   0.0000
     9 C       10.4115  -6.0606  19.1500   C.ar      1 RES1   0.0000
    10 N       10.1279  -6.6066  20.3538   N.pl3     1 RES1   0.0000
    11 C       11.1926  -6.7785  21.3378   C.3       1 RES1   0.0000
    12 C       10.9133  -5.9100  22.5867   C.3       1 RES1   0.0000
    13 C        9.4658  -6.1812  22.9643   C.ar      1 RES1   0.0000
    14 C        8.5113  -6.7057  22.1053   C.ar      1 RES1   0.0000
    15 N        7.3557  -6.8083  22.7873   N.ar      1 RES1   0.0000
    16 C        7.5659  -6.3623  24.0444   C.ar      1 RES1   0.0000
    17 N        8.8562  -5.9822  24.1446   N.ar      1 RES1   0.0000
    18 C        8.7786  -7.0762  20.6543   C.3       1 RES1   0.0000
    19 Cl       9.6640  -9.3957  18.7379   Cl        1 RES1   0.0000
    20 H1      10.6382  -9.2865  15.7972   H         1 RES1   0.0000
    21 H2      11.3554  -7.0076  15.0111   H         1 RES1   0.0000
    22 H3      11.1684  -3.0909  17.8471   H         1 RES1   0.0000
    23 H4      12.1701  -6.5055  20.9118   H         1 RES1   0.0000
    24 H5      11.2176  -7.8373  21.6372   H         1 RES1   0.0000
    25 H6      11.5938  -6.1737  23.4102   H         1 RES1   0.0000
    26 H7      11.0247  -4.8447  22.3353   H         1 RES1   0.0000
    27 H8       6.8251  -6.3180  24.8348   H         1 RES1   0.0000
    28 H9       9.2510  -5.6441  24.8920   H         1 RES1   0.0000
    29 H10      8.0255  -6.6283  19.9900   H         1 RES1   0.0000
    30 H11      8.7454  -8.1708  20.5508   H         1 RES1   0.0000
    31 ****    11.6045  -4.4724  15.9431   Du        1 RES1   0.0000
    32 ****    10.3882  -4.1407  19.8201   Du        1 RES1   0.0000
    33 ****     6.4904  -7.1552  22.4255   Du        1 RES1   0.0000
@<TRIPOS>BOND
     1     1     2   ar
     2     2     3   ar
     3     3     4   ar
     4     4     5   ar
     5     1     5   ar
     6     4     6   ar
     7     6     7   ar
     8     7     8   ar
     9     8     9   ar
    10     3     9   ar
    11     9    10    1
    12    10    11    1
    13    11    12    1
    14    12    13    1
    15    13    14   ar
    16    14    15   ar
    17    15    16   ar
    18    16    17   ar
    19    13    17   ar
    20    14    18    1
    21    10    18    1
    22     2    19    1
    23     1    20    1
    24     5    21    1
    25     7    22    1
    26    11    23    1
    27    11    24    1
    28    12    25    1
    29    12    26    1
    30    16    27    1
    31    17    28    1
    32    18    29    1
    33    18    30    1
    34     6    31    1
    35     8    32    1
    36    15    33    1
@<TRIPOS>SUBSTRUCTURE
     1 RES1        1 GROUP             0 ****  ****    0  
@<TRIPOS>MOLECULE
43.8098
    33    36     1     0     0
SMALL
NO_CHARGES
****
Generated from the CSD

@<TRIPOS>ATOM
     1 C       14.5733   0.1129  20.7314   C.ar      1 RES1   0.0000
     2 C       13.6989  -0.1788  19.6830   C.ar      1 RES1   0.0000
     3 C       12.9487   0.9712  19.4333   C.ar      1 RES1   0.0000
     4 C       13.4248   1.9509  20.2942   C.ar      1 RES1   0.0000
     5 N       14.3788   1.4029  21.0693   N.ar      1 RES1   0.0000
     6 N       12.9399   3.2037  20.2590   N.ar      1 RES1   0.0000
     7 C       12.0143   3.5026  19.3235   C.ar      1 RES1   0.0000
     8 N       11.5306   2.5676  18.4752   N.ar      1 RES1   0.0000
     9 C       11.9154   1.2760  18.5478   C.ar      1 RES1   0.0000
    10 N       11.3040   0.3412  17.7863   N.pl3     1 RES1   0.0000
    11 C       11.3243   0.4681  16.3320   C.3       1 RES1   0.0000
    12 C       12.1005  -0.7121  15.7021   C.3       1 RES1   0.0000
    13 C       11.5478  -1.9678  16.3570   C.ar      1 RES1   0.0000
    14 C       10.8635  -1.9927  17.5633   C.ar      1 RES1   0.0000
    15 N       10.5273  -3.2704  17.8196   N.ar      1 RES1   0.0000
    16 C       10.9837  -4.0386  16.8072   C.ar      1 RES1   0.0000
    17 N       11.6046  -3.2362  15.9183   N.ar      1 RES1   0.0000
    18 C       10.5770  -0.7611  18.4090   C.3       1 RES1   0.0000
    19 Cl      13.6018  -1.7107  18.8423   Cl        1 RES1   0.0000
    20 H1      15.2803  -0.5718  21.1864   H         1 RES1   0.0000
    21 H2      14.8327   1.8441  21.7236   H         1 RES1   0.0000
    22 H3      11.6482   4.5202  19.2505   H         1 RES1   0.0000
    23 H4      11.7887   1.4180  16.0262   H         1 RES1   0.0000
    24 H5      10.2854   0.4465  15.9696   H         1 RES1   0.0000
    25 H6      11.9593  -0.7390  14.6112   H         1 RES1   0.0000
    26 H7      13.1715  -0.6258  15.9391   H         1 RES1   0.0000
    27 H8      10.8700  -5.1136  16.7246   H         1 RES1   0.0000
    28 H9      11.9996  -3.5099  15.1452   H         1 RES1   0.0000
    29 H10     10.8822  -0.9226  19.4530   H         1 RES1   0.0000
    30 H11      9.4986  -0.5464  18.3775   H         1 RES1   0.0000
    31 ****    13.2563   3.8954  20.9081   Du        1 RES1   0.0000
    32 ****    10.8702   2.8402  17.7755   Du        1 RES1   0.0000
    33 ****    10.0259  -3.5949  18.6216   Du        1 RES1   0.0000
@<TRIPOS>BOND
     1     1     2   ar
     2     2     3   ar
     3     3     4   ar
     4     4     5   ar
     5     1     5   ar
     6     4     6   ar
     7     6     7   ar
     8     7     8   ar
     9     8     9   ar
    10     3     9   ar
    11     9    10    1
    12    10    11    1
    13    11    12    1
    14    12    13    1
    15    13    14   ar
    16    14    15   ar
    17    15    16   ar
    18    16    17   ar
    19    13    17   ar
    20    14    18    1
    21    10    18    1
    22     2    19    1
    23     1    20    1
    24     5    21    1
    25     7    22    1
    26    11    23    1
    27    11    24    1
    28    12    25    1
    29    12    26    1
    30    16    27    1
    31    17    28    1
    32    18    29    1
    33    18    30    1
    34     6    31    1
    35     8    32    1
    36    15    33    1
@<TRIPOS>SUBSTRUCTURE
     1 RES1        1 GROUP             0 ****  ****    0  
@<TRIPOS>MOLECULE
43.5992
    33    36     1     0     0
SMALL
NO_CHARGES
****
Generated from the CSD

@<TRIPOS>ATOM
     1 C       14.5808   0.0820  20.7030   C.ar      1 RES1   0.0000
     2 C       13.7059  -0.2213  19.6583   C.ar      1 RES1   0.0000
     3 C       12.9404   0.9191  19.4110   C.ar      1 RES1   0.0000
     4 C       13.4077   1.9052  20.2694   C.ar      1 RES1   0.0000
     5 N       14.3716   1.3698  21.0409   N.ar      1 RES1   0.0000
     6 N       12.9070   3.1519  20.2354   N.ar      1 RES1   0.0000
     7 C       11.9740   3.4386  19.3035   C.ar      1 RES1   0.0000
     8 N       11.4985   2.4971  18.4578   N.ar      1 RES1   0.0000
     9 C       11.8997   1.2105  18.5296   C.ar      1 RES1   0.0000
    10 N       11.2969   0.2676  17.7711   N.pl3     1 RES1   0.0000
    11 C       11.3308   0.3808  16.3159   C.3       1 RES1   0.0000
    12 C       12.1147  -0.8039  15.7045   C.3       1 RES1   0.0000
    13 C       11.5576  -2.0543  16.3659   C.ar      1 RES1   0.0000
    14 C       10.8620  -2.0690  17.5658   C.ar      1 RES1   0.0000
    15 N       10.5253  -3.3447  17.8309   N.ar      1 RES1   0.0000
    16 C       10.9924  -4.1217  16.8302   C.ar      1 RES1   0.0000
    17 N       11.6204  -3.3267  15.9397   N.ar      1 RES1   0.0000
    18 C       10.5657  -0.8300  18.3973   C.3       1 RES1   0.0000
    19 Cl      13.6244  -1.7548  18.8190   Cl        1 RES1   0.0000
    20 H1      15.2982  -0.5935  21.1555   H         1 RES1   0.0000
    21 H2      14.8226   1.8170  21.6930   H         1 RES1   0.0000
    22 H3      11.5949   4.4515  19.2314   H         1 RES1   0.0000
    23 H4      11.7967   1.3286  16.0057   H         1 RES1   0.0000
    24 H5      10.2954   0.3543  15.9440   H         1 RES1   0.0000
    25 H6      11.9838  -0.8413  14.6126   H         1 RES1   0.0000
    26 H7      13.1832  -0.7137  15.9507   H         1 RES1   0.0000
    27 H8      10.8811  -5.1976  16.7566   H         1 RES1   0.0000
    28 H9      12.0232  -3.6070  15.1729   H         1 RES1   0.0000
    29 H10     10.8612  -0.9812  19.4455   H         1 RES1   0.0000
    30 H11      9.4873  -0.6173  18.3536   H         1 RES1   0.0000
    31 ****    13.2174   3.8480  20.8828   Du        1 RES1   0.0000
    32 ****    10.8319   2.7609  17.7606   Du        1 RES1   0.0000
    33 ****    10.0168  -3.6626  18.6312   Du        1 RES1   0.0000
@<TRIPOS>BOND
     1     1     2   ar
     2     2     3   ar
     3     3     4   ar
     4     4     5   ar
     5     1     5   ar
     6     4     6   ar
     7     6     7   ar
     8     7     8   ar
     9     8     9   ar
    10     3     9   ar
    11     9    10    1
    12    10    11    1
    13    11    12    1
    14    12    13    1
    15    13    14   ar
    16    14    15   ar
    17    15    16   ar
    18    16    17   ar
    19    13    17   ar
    20    14    18    1
    21    10    18    1
    22     2    19    1
    23     1    20    1
    24     5    21    1
    25     7    22    1
    26    11    23    1
    27    11    24    1
    28    12    25    1
    29    12    26    1
    30    16    27    1
    31    17    28    1
    32    18    29    1
    33    18    30    1
    34     6    31    1
    35     8    32    1
    36    15    33    1
@<TRIPOS>SUBSTRUCTURE
     1 RES1        1 GROUP             0 ****  ****    0  
@<TRIPOS>MOLECULE
41.7879
    33    36     1     0     0
SMALL
NO_CHARGES
****
Generated from the CSD

@<TRIPOS>ATOM
     1 C       12.9819   2.2698  18.9956   C.ar      1 RES1   0.0000
     2 C       12.5094   1.0452  18.5200   C.ar      1 RES1   0.0000
     3 C       13.2604   0.0416  19.1335   C.ar      1 RES1   0.0000
     4 C       14.1301   0.6759  20.0105   C.ar      1 RES1   0.0000
     5 N       13.9542   2.0048  19.8905   N.ar      1 RES1   0.0000
     6 N       14.9567  -0.0284  20.8020   N.ar      1 RES1   0.0000
     7 C       14.8808  -1.3753  20.7645   C.ar      1 RES1   0.0000
     8 N       14.0460  -2.0188  19.9179   N.ar      1 RES1   0.0000
     9 C       13.2762  -1.3493  19.0343   C.ar      1 RES1   0.0000
    10 N       12.5664  -2.0250  18.1031   N.pl3     1 RES1   0.0000
    11 C       13.1540  -2.2791  16.7910   C.3       1 RES1   0.0000
    12 C       13.3313  -3.7993  16.5687   C.3       1 RES1   0.0000
    13 C       12.0029  -4.4316  16.9520   C.ar      1 RES1   0.0000
    14 C       11.0465  -3.8310  17.7575   C.ar      1 RES1   0.0000
    15 N       10.0106  -4.6825  17.8712   N.ar      1 RES1   0.0000
    16 C       10.2971  -5.7939  17.1599   C.ar      1 RES1   0.0000
    17 N       11.5142  -5.6327  16.6013   N.ar      1 RES1   0.0000
    18 C       11.1981  -2.4517  18.3810   C.3       1 RES1   0.0000
    19 Cl      11.1982   0.8402  17.3792   Cl        1 RES1   0.0000
    20 H1      12.6285   3.2517  18.7014   H         1 RES1   0.0000
    21 H2      14.4210   2.6340  20.3539   H         1 RES1   0.0000
    22 H3      15.5067  -1.9572  21.4312   H         1 RES1   0.0000
    23 H4      14.1287  -1.7774  16.6924   H         1 RES1   0.0000
    24 H5      12.4704  -1.8832  16.0247   H         1 RES1   0.0000
    25 H6      13.5861  -4.0171  15.5207   H         1 RES1   0.0000
    26 H7      14.1178  -4.1864  17.2336   H         1 RES1   0.0000
    27 H8       9.6586  -6.6640  17.0565   H         1 RES1   0.0000
    28 H9      11.9375  -6.2404  16.0720   H         1 RES1   0.0000
    29 H10     10.9837  -2.4830  19.4590   H         1 RES1   0.0000
    30 H11     10.4971  -1.7580  17.8938   H         1 RES1   0.0000
    31 ****    15.6101   0.4328  21.4022   Du        1 RES1   0.0000
    32 ****    13.9976  -3.0172  19.9470   Du        1 RES1   0.0000
    33 ****     9.1729  -4.5201  18.3927   Du        1 RES1   0.0000
@<TRIPOS>BOND
     1     1     2   ar
     2     2     3   ar
     3     3     4   ar
     4     4     5   ar
     5     1     5   ar
     6     4     6   ar
     7     6     7   ar
     8     7     8   ar
     9     8     9   ar
    10     3     9   ar
    11     9    10    1
    12    10    11    1
    13    11    12    1
    14    12    13    1
    15    13    14   ar
    16    14    15   ar
    17    15    16   ar
    18    16    17   ar
    19    13    17   ar
    20    14    18    1
    21    10    18    1
    22     2    19    1
    23     1    20    1
    24     5    21    1
    25     7    22    1
    26    11    23    1
    27    11    24    1
    28    12    25    1
    29    12    26    1
    30    16    27    1
    31    17    28    1
    32    18    29    1
    33    18    30    1
    34     6    31    1
    35     8    32    1
    36    15    33    1
@<TRIPOS>SUBSTRUCTURE
     1 RES1        1 GROUP             0 ****  ****    0  
@<TRIPOS>MOLECULE
41.0394
    33    36     1     0     0
SMALL
NO_CHARGES
****
Generated from the CSD

@<TRIPOS>ATOM
     1 C       11.5770  -0.8452  21.9017   C.ar      1 RES1   0.0000
     2 C       11.6662  -1.2503  20.5687   C.ar      1 RES1   0.0000
     3 C       11.5942  -0.1024  19.7783   C.ar      1 RES1   0.0000
     4 C       11.5228   0.9762  20.6495   C.ar      1 RES1   0.0000
     5 N       11.4939   0.4999  21.9079   N.ar      1 RES1   0.0000
     6 N       11.5002   2.2397  20.1925   N.ar      1 RES1   0.0000
     7 C       11.6062   2.4379  18.8618   C.ar      1 RES1   0.0000
     8 N       11.6735   1.4061  17.9907   N.ar      1 RES1   0.0000
     9 C       11.5938   0.1232  18.4021   C.ar      1 RES1   0.0000
    10 N       11.5140  -0.8770  17.4961   N.pl3     1 RES1   0.0000
    11 C       12.5512  -1.0136  16.4777   C.3       1 RES1   0.0000
    12 C       13.3100  -2.3487  16.6615   C.3       1 RES1   0.0000
    13 C       12.2384  -3.4160  16.8160   C.ar      1 RES1   0.0000
    14 C       10.9243  -3.1673  17.1837   C.ar      1 RES1   0.0000
    15 N       10.2747  -4.3456  17.2120   N.ar      1 RES1   0.0000
    16 C       11.1482  -5.3179  16.8729   C.ar      1 RES1   0.0000
    17 N       12.3441  -4.7425  16.6320   N.ar      1 RES1   0.0000
    18 C       10.3707  -1.7849  17.4946   C.3       1 RES1   0.0000
    19 Cl      11.8551  -2.9025  20.0233   Cl        1 RES1   0.0000
    20 H1      11.5782  -1.4938  22.7707   H         1 RES1   0.0000
    21 H2      11.4342   1.0145  22.6564   H         1 RES1   0.0000
    22 H3      11.6379   3.4521  18.4808   H         1 RES1   0.0000
    23 H4      13.2640  -0.1763  16.5271   H         1 RES1   0.0000
    24 H5      12.0665  -1.0111  15.4897   H         1 RES1   0.0000
    25 H6      13.9554  -2.5575  15.7952   H         1 RES1   0.0000
    26 H7      13.9154  -2.3128  17.5796   H         1 RES1   0.0000
    27 H8      10.9254  -6.3768  16.8062   H         1 RES1   0.0000
    28 H9      13.1020  -5.1821  16.3849   H         1 RES1   0.0000
    29 H10      9.8377  -1.7830  18.4563   H         1 RES1   0.0000
    30 H11      9.6748  -1.4884  16.6959   H         1 RES1   0.0000
    31 ****    11.4074   3.0118  20.8211   Du        1 RES1   0.0000
    32 ****    11.7852   1.5986  17.0158   Du        1 RES1   0.0000
    33 ****     9.3111  -4.4782  17.4442   Du        1 RES1   0.0000
@<TRIPOS>BOND
     1     1     2   ar
     2     2     3   ar
     3     3     4   ar
     4     4     5   ar
     5     1     5   ar
     6     4     6   ar
     7     6     7   ar
     8     7     8   ar
     9     8     9   ar
    10     3     9   ar
    11     9    10    1
    12    10    11    1
    13    11    12    1
    14    12    13    1
    15    13    14   ar
    16    14    15   ar
    17    15    16   ar
    18    16    17   ar
    19    13    17   ar
    20    14    18    1
    21    10    18    1
    22     2    19    1
    23     1    20    1
    24     5    21    1
    25     7    22    1
    26    11    23    1
    27    11    24    1
    28    12    25    1
    29    12    26    1
    30    16    27    1
    31    17    28    1
    32    18    29    1
    33    18    30    1
    34     6    31    1
    35     8    32    1
    36    15    33    1
@<TRIPOS>SUBSTRUCTURE
     1 RES1        1 GROUP             0 ****  ****    0  
@<TRIPOS>MOLECULE
40.9737
    33    36     1     0     0
SMALL
NO_CHARGES
****
Generated from the CSD

@<TRIPOS>ATOM
     1 C       11.6710  -0.8513  21.8585   C.ar      1 RES1   0.0000
     2 C       11.7343  -1.2772  20.5305   C.ar      1 RES1   0.0000
     3 C       11.6249  -0.1439  19.7234   C.ar      1 RES1   0.0000
     4 C       11.5573   0.9479  20.5785   C.ar      1 RES1   0.0000
     5 N       11.5666   0.4923  21.8447   N.ar      1 RES1   0.0000
     6 N       11.5035   2.2031  20.1015   N.ar      1 RES1   0.0000
     7 C       11.5740   2.3806  18.7656   C.ar      1 RES1   0.0000
     8 N       11.6366   1.3356  17.9100   N.ar      1 RES1   0.0000
     9 C       11.5875   0.0587  18.3442   C.ar      1 RES1   0.0000
    10 N       11.5018  -0.9577  17.4569   N.pl3     1 RES1   0.0000
    11 C       12.5163  -1.0953  16.4160   C.3       1 RES1   0.0000
    12 C       13.3002  -2.4153  16.6032   C.3       1 RES1   0.0000
    13 C       12.2497  -3.4963  16.8010   C.ar      1 RES1   0.0000
    14 C       10.9409  -3.2617  17.1963   C.ar      1 RES1   0.0000
    15 N       10.3109  -4.4492  17.2596   N.ar      1 RES1   0.0000
    16 C       11.1912  -5.4135  16.9154   C.ar      1 RES1   0.0000
    17 N       12.3718  -4.8238  16.6362   N.ar      1 RES1   0.0000
    18 C       10.3732  -1.8829  17.4979   C.3       1 RES1   0.0000
    19 Cl      11.9364  -2.9350  20.0077   Cl        1 RES1   0.0000
    20 H1      11.7036  -1.4851  22.7376   H         1 RES1   0.0000
    21 H2      11.5168   1.0184  22.5860   H         1 RES1   0.0000
    22 H3      11.5802   3.3887  18.3674   H         1 RES1   0.0000
    23 H4      13.2167  -0.2464  16.4344   H         1 RES1   0.0000
    24 H5      12.0081  -1.1167  15.4401   H         1 RES1   0.0000
    25 H6      13.9279  -2.6287  15.7250   H         1 RES1   0.0000
    26 H7      13.9268  -2.3548  17.5055   H         1 RES1   0.0000
    27 H8      10.9836  -6.4767  16.8714   H         1 RES1   0.0000
    28 H9      13.1304  -5.2558  16.3781   H         1 RES1   0.0000
    29 H10      9.8635  -1.8732  18.4721   H         1 RES1   0.0000
    30 H11      9.6538  -1.6106  16.7116   H         1 RES1   0.0000
    31 ****    11.4135   2.9841  20.7195   Du        1 RES1   0.0000
    32 ****    11.7216   1.5135  16.9297   Du        1 RES1   0.0000
    33 ****     9.3554  -4.5927  17.5173   Du        1 RES1   0.0000
@<TRIPOS>BOND
     1     1     2   ar
     2     2     3   ar
     3     3     4   ar
     4     4     5   ar
     5     1     5   ar
     6     4     6   ar
     7     6     7   ar
     8     7     8   ar
     9     8     9   ar
    10     3     9   ar
    11     9    10    1
    12    10    11    1
    13    11    12    1
    14    12    13    1
    15    13    14   ar
    16    14    15   ar
    17    15    16   ar
    18    16    17   ar
    19    13    17   ar
    20    14    18    1
    21    10    18    1
    22     2    19    1
    23     1    20    1
    24     5    21    1
    25     7    22    1
    26    11    23    1
    27    11    24    1
    28    12    25    1
    29    12    26    1
    30    16    27    1
    31    17    28    1
    32    18    29    1
    33    18    30    1
    34     6    31    1
    35     8    32    1
    36    15    33    1
@<TRIPOS>SUBSTRUCTURE
     1 RES1        1 GROUP             0 ****  ****    0  
@<TRIPOS>MOLECULE
40.867
    33    36     1     0     0
SMALL
NO_CHARGES
****
Generated from the CSD

@<TRIPOS>ATOM
     1 C       11.9126   2.9800  18.7921   C.ar      1 RES1   0.0000
     2 C       11.6555   1.6997  18.2985   C.ar      1 RES1   0.0000
     3 C       12.3037   0.7915  19.1366   C.ar      1 RES1   0.0000
     4 C       12.8892   1.5358  20.1519   C.ar      1 RES1   0.0000
     5 N       12.6557   2.8384  19.9076   N.ar      1 RES1   0.0000
     6 N       13.5469   0.9400  21.1611   N.ar      1 RES1   0.0000
     7 C       13.5761  -0.4088  21.1942   C.ar      1 RES1   0.0000
     8 N       13.0176  -1.1579  20.2171   N.ar      1 RES1   0.0000
     9 C       12.4396  -0.5964  19.1345   C.ar      1 RES1   0.0000
    10 N       12.0248  -1.3712  18.1073   N.pl3     1 RES1   0.0000
    11 C       12.7815  -1.3813  16.8587   C.3       1 RES1   0.0000
    12 C       13.3722  -2.7874  16.6017   C.3       1 RES1   0.0000
    13 C       12.2260  -3.7632  16.8143   C.ar      1 RES1   0.0000
    14 C       11.0728  -3.4815  17.5319   C.ar      1 RES1   0.0000
    15 N       10.2908  -4.5763  17.5006   N.ar      1 RES1   0.0000
    16 C       10.9258  -5.5289  16.7847   C.ar      1 RES1   0.0000
    17 N       12.1057  -5.0247  16.3687   N.ar      1 RES1   0.0000
    18 C       10.7964  -2.1523  18.2183   C.3       1 RES1   0.0000
    19 Cl      10.6765   1.3339  16.8947   Cl        1 RES1   0.0000
    20 H1      11.5735   3.9145  18.3593   H         1 RES1   0.0000
    21 H2      12.9517   3.5251  20.4267   H         1 RES1   0.0000
    22 H3      14.0610  -0.9052  22.0268   H         1 RES1   0.0000
    23 H4      13.5951  -0.6405  16.8856   H         1 RES1   0.0000
    24 H5      12.0948  -1.1266  16.0374   H         1 RES1   0.0000
    25 H6      13.7746  -2.8650  15.5806   H         1 RES1   0.0000
    26 H7      14.1652  -3.0007  17.3340   H         1 RES1   0.0000
    27 H8      10.5511  -6.5256  16.5805   H         1 RES1   0.0000
    28 H9      12.7224  -5.4680  15.8669   H         1 RES1   0.0000
    29 H10     10.4954  -2.3064  19.2646   H         1 RES1   0.0000
    30 H11      9.9880  -1.6327  17.6831   H         1 RES1   0.0000
    31 ****    14.0021   1.4812  21.8681   Du        1 RES1   0.0000
    32 ****    13.0331  -2.1545  20.2988   Du        1 RES1   0.0000
    33 ****     9.3938  -4.6685  17.9331   Du        1 RES1   0.0000
@<TRIPOS>BOND
     1     1     2   ar
     2     2     3   ar
     3     3     4   ar
     4     4     5   ar
     5     1     5   ar
     6     4     6   ar
     7     6     7   ar
     8     7     8   ar
     9     8     9   ar
    10     3     9   ar
    11     9    10    1
    12    10    11    1
    13    11    12    1
    14    12    13    1
    15    13    14   ar
    16    14    15   ar
    17    15    16   ar
    18    16    17   ar
    19    13    17   ar
    20    14    18    1
    21    10    18    1
    22     2    19    1
    23     1    20    1
    24     5    21    1
    25     7    22    1
    26    11    23    1
    27    11    24    1
    28    12    25    1
    29    12    26    1
    30    16    27    1
    31    17    28    1
    32    18    29    1
    33    18    30    1
    34     6    31    1
    35     8    32    1
    36    15    33    1
@<TRIPOS>SUBSTRUCTURE
     1 RES1        1 GROUP             0 ****  ****    0  
@<TRIPOS>MOLECULE
40.551
    33    36     1     0     0
SMALL
NO_CHARGES
****
Generated from the CSD

@<TRIPOS>ATOM
     1 C       11.3342  -7.0193  21.7242   C.ar      1 RES1   0.0000
     2 C       11.5306  -5.8224  21.0331   C.ar      1 RES1   0.0000
     3 C       10.8733  -5.9359  19.8072   C.ar      1 RES1   0.0000
     4 C       10.2444  -7.1737  19.8067   C.ar      1 RES1   0.0000
     5 N       10.5548  -7.8043  20.9544   N.ar      1 RES1   0.0000
     6 N        9.4731  -7.5620  18.7770   N.ar      1 RES1   0.0000
     7 C        9.2778  -6.6923  17.7638   C.ar      1 RES1   0.0000
     8 N        9.8806  -5.4824  17.7369   N.ar      1 RES1   0.0000
     9 C       10.7440  -5.0978  18.7002   C.ar      1 RES1   0.0000
    10 N       11.4417  -3.9475  18.5673   N.pl3     1 RES1   0.0000
    11 C       12.9007  -3.9874  18.5332   C.3       1 RES1   0.0000
    12 C       13.4182  -3.4963  17.1610   C.3       1 RES1   0.0000
    13 C       12.6775  -2.1989  16.8793   C.ar      1 RES1   0.0000
    14 C       11.4879  -1.8220  17.4850   C.ar      1 RES1   0.0000
    15 N       11.1381  -0.6195  16.9925   N.ar      1 RES1   0.0000
    16 C       12.0763  -0.2398  16.0986   C.ar      1 RES1   0.0000
    17 N       13.0127  -1.2086  16.0358   N.ar      1 RES1   0.0000
    18 C       10.7489  -2.6634  18.5147   C.3       1 RES1   0.0000
    19 Cl      12.4250  -4.4426  21.6321   Cl        1 RES1   0.0000
    20 H1      11.7326  -7.2686  22.7014   H         1 RES1   0.0000
    21 H2      10.2718  -8.6394  21.1807   H         1 RES1   0.0000
    22 H3       8.6201  -6.9716  16.9488   H         1 RES1   0.0000
    23 H4      13.2710  -5.0066  18.7220   H         1 RES1   0.0000
    24 H5      13.2823  -3.3185  19.3193   H         1 RES1   0.0000
    25 H6      14.5062  -3.3343  17.1853   H         1 RES1   0.0000
    26 H7      13.1661  -4.2298  16.3806   H         1 RES1   0.0000
    27 H8      12.0756   0.6838  15.5307   H         1 RES1   0.0000
    28 H9      13.7530  -1.1946  15.5064   H         1 RES1   0.0000
    29 H10      9.6892  -2.7741  18.2432   H         1 RES1   0.0000
    30 H11     10.8204  -2.1737  19.4971   H         1 RES1   0.0000
    31 ****     9.0554  -8.4705  18.7620   Du        1 RES1   0.0000
    32 ****     9.6813  -4.8560  16.9833   Du        1 RES1   0.0000
    33 ****    10.3237  -0.0970  17.2450   Du        1 RES1   0.0000
@<TRIPOS>BOND
     1     1     2   ar
     2     2     3   ar
     3     3     4   ar
     4     4     5   ar
     5     1     5   ar
     6     4     6   ar
     7     6     7   ar
     8     7     8   ar
     9     8     9   ar
    10     3     9   ar
    11     9    10    1
    12    10    11    1
    13    11    12    1
    14    12    13    1
    15    13    14   ar
    16    14    15   ar
    17    15    16   ar
    18    16    17   ar
    19    13    17   ar
    20    14    18    1
    21    10    18    1
    22     2    19    1
    23     1    20    1
    24     5    21    1
    25     7    22    1
    26    11    23    1
    27    11    24    1
    28    12    25    1
    29    12    26    1
    30    16    27    1
    31    17    28    1
    32    18    29    1
    33    18    30    1
    34     6    31    1
    35     8    32    1
    36    15    33    1
@<TRIPOS>SUBSTRUCTURE
     1 RES1        1 GROUP             0 ****  ****    0  
@<TRIPOS>MOLECULE
40.3664
    33    36     1     0     0
SMALL
NO_CHARGES
****
Generated from the CSD

@<TRIPOS>ATOM
     1 C       11.6614  -6.2086  22.2534   C.ar      1 RES1   0.0000
     2 C       11.8887  -5.2577  21.2569   C.ar      1 RES1   0.0000
     3 C       10.9878  -5.5142  20.2224   C.ar      1 RES1   0.0000
     4 C       10.1960  -6.5758  20.6390   C.ar      1 RES1   0.0000
     5 N       10.6353  -6.9809  21.8449   N.ar      1 RES1   0.0000
     6 N        9.1839  -7.0289  19.8799   N.ar      1 RES1   0.0000
     7 C        8.9186  -6.3874  18.7227   C.ar      1 RES1   0.0000
     8 N        9.6754  -5.3535  18.2913   N.ar      1 RES1   0.0000
     9 C       10.7628  -4.9364  18.9732   C.ar      1 RES1   0.0000
    10 N       11.5814  -4.0015  18.4407   N.pl3     1 RES1   0.0000
    11 C       12.4469  -4.3537  17.3190   C.3       1 RES1   0.0000
    12 C       12.0548  -3.5399  16.0637   C.3       1 RES1   0.0000
    13 C       11.9429  -2.0955  16.5249   C.ar      1 RES1   0.0000
    14 C       11.7648  -1.6995  17.8423   C.ar      1 RES1   0.0000
    15 N       11.7155  -0.3548  17.8649   N.ar      1 RES1   0.0000
    16 C       11.8574   0.0945  16.5994   C.ar      1 RES1   0.0000
    17 N       11.9964  -0.9738  15.7878   N.ar      1 RES1   0.0000
    18 C       11.6465  -2.6610  19.0153   C.3       1 RES1   0.0000
    19 Cl      13.0795  -3.9774  21.3322   Cl        1 RES1   0.0000
    20 H1      12.2077  -6.3046  23.1851   H         1 RES1   0.0000
    21 H2      10.2836  -7.6736  22.3195   H         1 RES1   0.0000
    22 H3       8.0759  -6.7101  18.1223   H         1 RES1   0.0000
    23 H4      12.3820  -5.4293  17.0944   H         1 RES1   0.0000
    24 H5      13.4841  -4.1092  17.5939   H         1 RES1   0.0000
    25 H6      12.8125  -3.6458  15.2729   H         1 RES1   0.0000
    26 H7      11.0751  -3.8741  15.6908   H         1 RES1   0.0000
    27 H8      11.8591   1.1338  16.2910   H         1 RES1   0.0000
    28 H9      12.1080  -0.9407  14.8849   H         1 RES1   0.0000
    29 H10     10.7625  -2.4275  19.6261   H         1 RES1   0.0000
    30 H11     12.5484  -2.5788  19.6397   H         1 RES1   0.0000
    31 ****     8.6422  -7.8198  20.1648   Du        1 RES1   0.0000
    32 ****     9.4228  -4.8854  17.4444   Du        1 RES1   0.0000
    33 ****    11.5945   0.2136  18.6786   Du        1 RES1   0.0000
@<TRIPOS>BOND
     1     1     2   ar
     2     2     3   ar
     3     3     4   ar
     4     4     5   ar
     5     1     5   ar
     6     4     6   ar
     7     6     7   ar
     8     7     8   ar
     9     8     9   ar
    10     3     9   ar
    11     9    10    1
    12    10    11    1
    13    11    12    1
    14    12    13    1
    15    13    14   ar
    16    14    15   ar
    17    15    16   ar
    18    16    17   ar
    19    13    17   ar
    20    14    18    1
    21    10    18    1
    22     2    19    1
    23     1    20    1
    24     5    21    1
    25     7    22    1
    26    11    23    1
    27    11    24    1
    28    12    25    1
    29    12    26    1
    30    16    27    1
    31    17    28    1
    32    18    29    1
    33    18    30    1
    34     6    31    1
    35     8    32    1
    36    15    33    1
@<TRIPOS>SUBSTRUCTURE
     1 RES1        1 GROUP             0 ****  ****    0  
@<TRIPOS>MOLECULE
40.0574
    33    36     1     0     0
SMALL
NO_CHARGES
****
Generated from the CSD

@<TRIPOS>ATOM
     1 C       14.3366  -0.5709  20.4504   C.ar      1 RES1   0.0000
     2 C       13.5934  -1.0806  19.3842   C.ar      1 RES1   0.0000
     3 C       12.7672  -0.0546  18.9235   C.ar      1 RES1   0.0000
     4 C       13.0697   1.0694  19.6804   C.ar      1 RES1   0.0000
     5 N       13.9942   0.7244  20.5956   N.ar      1 RES1   0.0000
     6 N       12.4773   2.2512  19.4389   N.ar      1 RES1   0.0000
     7 C       11.6186   2.3331  18.4011   C.ar      1 RES1   0.0000
     8 N       11.3032   1.2541  17.6501   N.ar      1 RES1   0.0000
     9 C       11.7965   0.0285  17.9257   C.ar      1 RES1   0.0000
    10 N       11.3465  -1.0526  17.2502   N.pl3     1 RES1   0.0000
    11 C       11.8189  -1.3038  15.8918   C.3       1 RES1   0.0000
    12 C       12.6167  -2.6277  15.8383   C.3       1 RES1   0.0000
    13 C       11.7595  -3.6571  16.5572   C.ar      1 RES1   0.0000
    14 C       10.7441  -3.3521  17.4517   C.ar      1 RES1   0.0000
    15 N       10.2101  -4.5111  17.8789   N.ar      1 RES1   0.0000
    16 C       10.8651  -5.5261  17.2755   C.ar      1 RES1   0.0000
    17 N       11.8086  -4.9966  16.4699   N.ar      1 RES1   0.0000
    18 C       10.3504  -1.9371  17.8479   C.3       1 RES1   0.0000
    19 Cl      13.7153  -2.7078  18.7517   Cl        1 RES1   0.0000
    20 H1      15.0584  -1.1165  21.0480   H         1 RES1   0.0000
    21 H2      14.3433   1.2887  21.2188   H         1 RES1   0.0000
    22 H3      11.1690   3.2903  18.1633   H         1 RES1   0.0000
    23 H4      12.4539  -0.4777  15.5370   H         1 RES1   0.0000
    24 H5      10.9422  -1.3880  15.2320   H         1 RES1   0.0000
    25 H6      12.8097  -2.9295  14.7980   H         1 RES1   0.0000
    26 H7      13.5687  -2.5140  16.3781   H         1 RES1   0.0000
    27 H8      10.6661  -6.5826  17.4153   H         1 RES1   0.0000
    28 H9      12.3867  -5.4707  15.9506   H         1 RES1   0.0000
    29 H10     10.3065  -1.8339  18.9417   H         1 RES1   0.0000
    30 H11      9.3619  -1.7070  17.4238   H         1 RES1   0.0000
    31 ****    12.6675   3.0479  20.0125   Du        1 RES1   0.0000
    32 ****    10.6881   1.3670  16.8697   Du        1 RES1   0.0000
    33 ****     9.4577  -4.6046  18.5310   Du        1 RES1   0.0000
@<TRIPOS>BOND
     1     1     2   ar
     2     2     3   ar
     3     3     4   ar
     4     4     5   ar
     5     1     5   ar
     6     4     6   ar
     7     6     7   ar
     8     7     8   ar
     9     8     9   ar
    10     3     9   ar
    11     9    10    1
    12    10    11    1
    13    11    12    1
    14    12    13    1
    15    13    14   ar
    16    14    15   ar
    17    15    16   ar
    18    16    17   ar
    19    13    17   ar
    20    14    18    1
    21    10    18    1
    22     2    19    1
    23     1    20    1
    24     5    21    1
    25     7    22    1
    26    11    23    1
    27    11    24    1
    28    12    25    1
    29    12    26    1
    30    16    27    1
    31    17    28    1
    32    18    29    1
    33    18    30    1
    34     6    31    1
    35     8    32    1
    36    15    33    1
@<TRIPOS>SUBSTRUCTURE
     1 RES1        1 GROUP             0 ****  ****    0  
@<TRIPOS>MOLECULE
39.9415
    33    36     1     0     0
SMALL
NO_CHARGES
****
Generated from the CSD

@<TRIPOS>ATOM
     1 C       14.2086  -0.2015  21.0418   C.ar      1 RES1   0.0000
     2 C       13.5400  -0.5862  19.8782   C.ar      1 RES1   0.0000
     3 C       12.8008   0.5130  19.4391   C.ar      1 RES1   0.0000
     4 C       13.0834   1.5559  20.3110   C.ar      1 RES1   0.0000
     5 N       13.9096   1.0931  21.2672   N.ar      1 RES1   0.0000
     6 N       12.5644   2.7809  20.1221   N.ar      1 RES1   0.0000
     7 C       11.8033   2.9886  19.0272   C.ar      1 RES1   0.0000
     8 N       11.5092   1.9906  18.1639   N.ar      1 RES1   0.0000
     9 C       11.9248   0.7240  18.3747   C.ar      1 RES1   0.0000
    10 N       11.4901  -0.2756  17.5750   N.pl3     1 RES1   0.0000
    11 C       12.0163  -0.3961  16.2185   C.3       1 RES1   0.0000
    12 C       12.7990  -1.7210  16.0631   C.3       1 RES1   0.0000
    13 C       11.8992  -2.8032  16.6381   C.ar      1 RES1   0.0000
    14 C       10.8510  -2.5733  17.5169   C.ar      1 RES1   0.0000
    15 N       10.2848  -3.7604  17.8019   N.ar      1 RES1   0.0000
    16 C       10.9519  -4.7200  17.1256   C.ar      1 RES1   0.0000
    17 N       11.9351  -4.1277  16.4171   N.ar      1 RES1   0.0000
    18 C       10.4587  -1.1991  18.0385   C.3       1 RES1   0.0000
    19 Cl      13.6480  -2.1610  19.1224   Cl        1 RES1   0.0000
    20 H1      14.8522  -0.8283  21.6489   H         1 RES1   0.0000
    21 H2      14.2267   1.5874  21.9629   H         1 RES1   0.0000
    22 H3      11.4167   3.9828  18.8348   H         1 RES1   0.0000
    23 H4      12.6761   0.4508  15.9756   H         1 RES1   0.0000
    24 H5      11.1672  -0.3984  15.5184   H         1 RES1   0.0000
    25 H6      13.0319  -1.9193  15.0062   H         1 RES1   0.0000
    26 H7      13.7287  -1.6785  16.6500   H         1 RES1   0.0000
    27 H8      10.7339  -5.7817  17.1490   H         1 RES1   0.0000
    28 H9      12.5287  -4.5565  15.8762   H         1 RES1   0.0000
    29 H10     10.3700  -1.2063  19.1345   H         1 RES1   0.0000
    30 H11      9.4919  -0.9107  17.6002   H         1 RES1   0.0000
    31 ****    12.7373   3.5184  20.7749   Du        1 RES1   0.0000
    32 ****    10.9696   2.1963  17.3475   Du        1 RES1   0.0000
    33 ****     9.5044  -3.9066  18.4099   Du        1 RES1   0.0000
@<TRIPOS>BOND
     1     1     2   ar
     2     2     3   ar
     3     3     4   ar
     4     4     5   ar
     5     1     5   ar
     6     4     6   ar
     7     6     7   ar
     8     7     8   ar
     9     8     9   ar
    10     3     9   ar
    11     9    10    1
    12    10    11    1
    13    11    12    1
    14    12    13    1
    15    13    14   ar
    16    14    15   ar
    17    15    16   ar
    18    16    17   ar
    19    13    17   ar
    20    14    18    1
    21    10    18    1
    22     2    19    1
    23     1    20    1
    24     5    21    1
    25     7    22    1
    26    11    23    1
    27    11    24    1
    28    12    25    1
    29    12    26    1
    30    16    27    1
    31    17    28    1
    32    18    29    1
    33    18    30    1
    34     6    31    1
    35     8    32    1
    36    15    33    1
@<TRIPOS>SUBSTRUCTURE
     1 RES1        1 GROUP             0 ****  ****    0  
@<TRIPOS>MOLECULE
39.8753
    33    36     1     0     0
SMALL
NO_CHARGES
****
Generated from the CSD

@<TRIPOS>ATOM
     1 C       11.2907  -6.5170  21.7217   C.ar      1 RES1   0.0000
     2 C       11.5832  -5.4811  20.8327   C.ar      1 RES1   0.0000
     3 C       10.8959  -5.7428  19.6466   C.ar      1 RES1   0.0000
     4 C       10.1565  -6.8979  19.8623   C.ar      1 RES1   0.0000
     5 N       10.4287  -7.3469  21.1014   N.ar      1 RES1   0.0000
     6 N        9.3342  -7.3845  18.9173   N.ar      1 RES1   0.0000
     7 C        9.2009  -6.6885  17.7689   C.ar      1 RES1   0.0000
     8 N        9.9113  -5.5630  17.5310   N.ar      1 RES1   0.0000
     9 C       10.8237  -5.1000  18.4111   C.ar      1 RES1   0.0000
    10 N       11.6213  -4.0602  18.0790   N.pl3     1 RES1   0.0000
    11 C       12.6743  -4.2462  17.0850   C.3       1 RES1   0.0000
    12 C       12.3998  -3.3665  15.8428   C.3       1 RES1   0.0000
    13 C       12.0848  -1.9793  16.3793   C.ar      1 RES1   0.0000
    14 C       11.6750  -1.7094  17.6767   C.ar      1 RES1   0.0000
    15 N       11.4967  -0.3798  17.7839   N.ar      1 RES1   0.0000
    16 C       11.7837   0.1826  16.5902   C.ar      1 RES1   0.0000
    17 N       12.1426  -0.8000  15.7387   N.ar      1 RES1   0.0000
    18 C       11.4733  -2.7708  18.7477   C.3       1 RES1   0.0000
    19 Cl      12.6109  -4.1081  21.1812   Cl        1 RES1   0.0000
    20 H1      11.6824  -6.6299  22.7264   H         1 RES1   0.0000
    21 H2      10.0746  -8.1003  21.4699   H         1 RES1   0.0000
    22 H3       8.5056  -7.0416  17.0161   H         1 RES1   0.0000
    23 H4      12.7451  -5.3012  16.7794   H         1 RES1   0.0000
    24 H5      13.6309  -3.9406  17.5350   H         1 RES1   0.0000
    25 H6      13.2740  -3.3441  15.1750   H         1 RES1   0.0000
    26 H7      11.5228  -3.7483  15.2991   H         1 RES1   0.0000
    27 H8      11.7339   1.2405  16.3582   H         1 RES1   0.0000
    28 H9      12.3845  -0.6834  14.8689   H         1 RES1   0.0000
    29 H10     10.4898  -2.6621  19.2272   H         1 RES1   0.0000
    30 H11     12.2597  -2.6665  19.5097   H         1 RES1   0.0000
    31 ****     8.8348  -8.2388  19.0612   Du        1 RES1   0.0000
    32 ****     9.7565  -5.0602  16.6806   Du        1 RES1   0.0000
    33 ****    11.2023   0.1077  18.6058   Du        1 RES1   0.0000
@<TRIPOS>BOND
     1     1     2   ar
     2     2     3   ar
     3     3     4   ar
     4     4     5   ar
     5     1     5   ar
     6     4     6   ar
     7     6     7   ar
     8     7     8   ar
     9     8     9   ar
    10     3     9   ar
    11     9    10    1
    12    10    11    1
    13    11    12    1
    14    12    13    1
    15    13    14   ar
    16    14    15   ar
    17    15    16   ar
    18    16    17   ar
    19    13    17   ar
    20    14    18    1
    21    10    18    1
    22     2    19    1
    23     1    20    1
    24     5    21    1
    25     7    22    1
    26    11    23    1
    27    11    24    1
    28    12    25    1
    29    12    26    1
    30    16    27    1
    31    17    28    1
    32    18    29    1
    33    18    30    1
    34     6    31    1
    35     8    32    1
    36    15    33    1
@<TRIPOS>SUBSTRUCTURE
     1 RES1        1 GROUP             0 ****  ****    0  
@<TRIPOS>MOLECULE
39.6603
    33    36     1     0     0
SMALL
NO_CHARGES
****
Generated from the CSD

@<TRIPOS>ATOM
     1 C       10.7523   1.3352  17.5043   C.ar      1 RES1   0.0000
     2 C       11.2150   0.0425  17.7571   C.ar      1 RES1   0.0000
     3 C       12.3715   0.1571  18.5297   C.ar      1 RES1   0.0000
     4 C       12.5511   1.5112  18.7779   C.ar      1 RES1   0.0000
     5 N       11.5815   2.1891  18.1364   N.ar      1 RES1   0.0000
     6 N       13.5582   1.9493  19.5523   N.ar      1 RES1   0.0000
     7 C       14.3613   1.0327  20.1319   C.ar      1 RES1   0.0000
     8 N       14.2114  -0.2916  19.9048   N.ar      1 RES1   0.0000
     9 C       13.2785  -0.7646  19.0518   C.ar      1 RES1   0.0000
    10 N       13.2527  -2.0782  18.7336   N.pl3     1 RES1   0.0000
    11 C       13.1294  -3.0757  19.7925   C.3       1 RES1   0.0000
    12 C       11.8031  -3.8567  19.6410   C.3       1 RES1   0.0000
    13 C       11.7320  -4.2726  18.1804   C.ar      1 RES1   0.0000
    14 C       12.4485  -3.6749  17.1541   C.ar      1 RES1   0.0000
    15 N       12.1339  -4.3084  16.0092   N.ar      1 RES1   0.0000
    16 C       11.2427  -5.2815  16.2958   C.ar      1 RES1   0.0000
    17 N       11.0032  -5.2537  17.6230   N.ar      1 RES1   0.0000
    18 C       13.4040  -2.5068  17.3461   C.3       1 RES1   0.0000
    19 Cl      10.4487  -1.4322  17.2085   Cl        1 RES1   0.0000
    20 H1       9.8841   1.6013  16.9119   H         1 RES1   0.0000
    21 H2      11.4947   3.0953  18.1364   H         1 RES1   0.0000
    22 H3      15.1485   1.3673  20.7976   H         1 RES1   0.0000
    23 H4      13.1654  -2.6021  20.7854   H         1 RES1   0.0000
    24 H5      13.9708  -3.7794  19.7027   H         1 RES1   0.0000
    25 H6      11.7848  -4.7343  20.3044   H         1 RES1   0.0000
    26 H7      10.9517  -3.1977  19.8680   H         1 RES1   0.0000
    27 H8      10.7978  -5.9657  15.5821   H         1 RES1   0.0000
    28 H9      10.4378  -5.8100  18.0698   H         1 RES1   0.0000
    29 H10     13.1824  -1.6979  16.6351   H         1 RES1   0.0000
    30 H11     14.4348  -2.8556  17.1859   H         1 RES1   0.0000
    31 ****    13.7085   2.9276  19.6950   Du        1 RES1   0.0000
    32 ****    14.8075  -0.9378  20.3814   Du        1 RES1   0.0000
    33 ****    12.4975  -4.0952  15.1023   Du        1 RES1   0.0000
@<TRIPOS>BOND
     1     1     2   ar
     2     2     3   ar
     3     3     4   ar
     4     4     5   ar
     5     1     5   ar
     6     4     6   ar
     7     6     7   ar
     8     7     8   ar
     9     8     9   ar
    10     3     9   ar
    11     9    10    1
    12    10    11    1
    13    11    12    1
    14    12    13    1
    15    13    14   ar
    16    14    15   ar
    17    15    16   ar
    18    16    17   ar
    19    13    17   ar
    20    14    18    1
    21    10    18    1
    22     2    19    1
    23     1    20    1
    24     5    21    1
    25     7    22    1
    26    11    23    1
    27    11    24    1
    28    12    25    1
    29    12    26    1
    30    16    27    1
    31    17    28    1
    32    18    29    1
    33    18    30    1
    34     6    31    1
    35     8    32    1
    36    15    33    1
@<TRIPOS>SUBSTRUCTURE
     1 RES1        1 GROUP             0 ****  ****    0  
@<TRIPOS>MOLECULE
38.7663
    33    36     1     0     0
SMALL
NO_CHARGES
****
Generated from the CSD

@<TRIPOS>ATOM
     1 C       11.6900  -6.3759  22.2934   C.ar      1 RES1   0.0000
     2 C       11.9196  -5.3933  21.3286   C.ar      1 RES1   0.0000
     3 C       10.9789  -5.5769  20.3142   C.ar      1 RES1   0.0000
     4 C       10.1637  -6.6274  20.7136   C.ar      1 RES1   0.0000
     5 N       10.6255  -7.0959  21.8877   N.ar      1 RES1   0.0000
     6 N        9.1135  -7.0148  19.9701   N.ar      1 RES1   0.0000
     7 C        8.8352  -6.3180  18.8484   C.ar      1 RES1   0.0000
     8 N        9.6141  -5.2934  18.4343   N.ar      1 RES1   0.0000
     9 C       10.7359  -4.9414  19.0969   C.ar      1 RES1   0.0000
    10 N       11.5698  -4.0137  18.5759   N.pl3     1 RES1   0.0000
    11 C       12.5865  -4.4179  17.6092   C.3       1 RES1   0.0000
    12 C       12.3185  -3.7514  16.2396   C.3       1 RES1   0.0000
    13 C       12.0802  -2.2793  16.5350   C.ar      1 RES1   0.0000
    14 C       11.7176  -1.7718  17.7740   C.ar      1 RES1   0.0000
    15 N       11.6017  -0.4364  17.6539   N.ar      1 RES1   0.0000
    16 C       11.8815  -0.1011  16.3762   C.ar      1 RES1   0.0000
    17 N       12.1733  -1.2312  15.7000   N.ar      1 RES1   0.0000
    18 C       11.4975  -2.6233  19.0152   C.3       1 RES1   0.0000
    19 Cl      13.1562  -4.1580  21.4163   Cl        1 RES1   0.0000
    20 H1      12.2611  -6.5282  23.2024   H         1 RES1   0.0000
    21 H2      10.2646  -7.7951  22.3455   H         1 RES1   0.0000
    22 H3       7.9636  -6.5874  18.2631   H         1 RES1   0.0000
    23 H4      12.6021  -5.5118  17.4886   H         1 RES1   0.0000
    24 H5      13.5676  -4.0866  17.9820   H         1 RES1   0.0000
    25 H6      13.1747  -3.8861  15.5617   H         1 RES1   0.0000
    26 H7      11.4111  -4.1777  15.7862   H         1 RES1   0.0000
    27 H8      11.8727   0.9026  15.9665   H         1 RES1   0.0000
    28 H9      12.3968  -1.2770  14.8187   H         1 RES1   0.0000
    29 H10     10.5330  -2.3866  19.4872   H         1 RES1   0.0000
    30 H11     12.3078  -2.4284  19.7331   H         1 RES1   0.0000
    31 ****     8.5535  -7.7979  20.2406   Du        1 RES1   0.0000
    32 ****     9.3521  -4.7829  17.6153   Du        1 RES1   0.0000
    33 ****    11.3514   0.1982  18.3851   Du        1 RES1   0.0000
@<TRIPOS>BOND
     1     1     2   ar
     2     2     3   ar
     3     3     4   ar
     4     4     5   ar
     5     1     5   ar
     6     4     6   ar
     7     6     7   ar
     8     7     8   ar
     9     8     9   ar
    10     3     9   ar
    11     9    10    1
    12    10    11    1
    13    11    12    1
    14    12    13    1
    15    13    14   ar
    16    14    15   ar
    17    15    16   ar
    18    16    17   ar
    19    13    17   ar
    20    14    18    1
    21    10    18    1
    22     2    19    1
    23     1    20    1
    24     5    21    1
    25     7    22    1
    26    11    23    1
    27    11    24    1
    28    12    25    1
    29    12    26    1
    30    16    27    1
    31    17    28    1
    32    18    29    1
    33    18    30    1
    34     6    31    1
    35     8    32    1
    36    15    33    1
@<TRIPOS>SUBSTRUCTURE
     1 RES1        1 GROUP             0 ****  ****    0  
@<TRIPOS>MOLECULE
38.7185
    33    36     1     0     0
SMALL
NO_CHARGES
****
Generated from the CSD

@<TRIPOS>ATOM
     1 C       10.0525  -6.8792  16.2958   C.ar      1 RES1   0.0000
     2 C       10.7892  -5.7948  16.7756   C.ar      1 RES1   0.0000
     3 C       10.7093  -5.8198  18.1686   C.ar      1 RES1   0.0000
     4 C        9.9768  -6.9504  18.5044   C.ar      1 RES1   0.0000
     5 N        9.5821  -7.5499  17.3660   N.ar      1 RES1   0.0000
     6 N        9.7705  -7.2901  19.7881   N.ar      1 RES1   0.0000
     7 C       10.3432  -6.5332  20.7474   C.ar      1 RES1   0.0000
     8 N       11.0582  -5.4253  20.4490   N.ar      1 RES1   0.0000
     9 C       11.2003  -4.9928  19.1785   C.ar      1 RES1   0.0000
    10 N       11.7929  -3.8039  18.9278   N.pl3     1 RES1   0.0000
    11 C       13.2486  -3.6997  18.9676   C.3       1 RES1   0.0000
    12 C       13.7981  -3.3364  17.5683   C.3       1 RES1   0.0000
    13 C       12.9563  -2.1668  17.0838   C.ar      1 RES1   0.0000
    14 C       11.7025  -1.8389  17.5782   C.ar      1 RES1   0.0000
    15 N       11.2706  -0.7500  16.9156   N.ar      1 RES1   0.0000
    16 C       12.2202  -0.3934  16.0243   C.ar      1 RES1   0.0000
    17 N       13.2460  -1.2625  16.1337   N.ar      1 RES1   0.0000
    18 C       10.9863  -2.6136  18.6741   C.3       1 RES1   0.0000
    19 Cl      11.6602  -4.6450  15.7846   Cl        1 RES1   0.0000
    20 H1       9.8924  -7.1355  15.2545   H         1 RES1   0.0000
    21 H2       9.0755  -8.3052  17.3258   H         1 RES1   0.0000
    22 H3      10.2264  -6.8212  21.7858   H         1 RES1   0.0000
    23 H4      13.7016  -4.6440  19.3062   H         1 RES1   0.0000
    24 H5      13.5178  -2.9014  19.6756   H         1 RES1   0.0000
    25 H6      14.8626  -3.0632  17.6219   H         1 RES1   0.0000
    26 H7      13.6632  -4.1845  16.8805   H         1 RES1   0.0000
    27 H8      12.1662   0.4459  15.3403   H         1 RES1   0.0000
    28 H9      14.0119  -1.2406  15.6422   H         1 RES1   0.0000
    29 H10      9.9598  -2.8647  18.3703   H         1 RES1   0.0000
    30 H11     10.9526  -1.9988  19.5857   H         1 RES1   0.0000
    31 ****     9.2080  -8.0820  20.0260   Du        1 RES1   0.0000
    32 ****    11.4933  -4.9127  21.1892   Du        1 RES1   0.0000
    33 ****    10.3969  -0.2850  17.0587   Du        1 RES1   0.0000
@<TRIPOS>BOND
     1     1     2   ar
     2     2     3   ar
     3     3     4   ar
     4     4     5   ar
     5     1     5   ar
     6     4     6   ar
     7     6     7   ar
     8     7     8   ar
     9     8     9   ar
    10     3     9   ar
    11     9    10    1
    12    10    11    1
    13    11    12    1
    14    12    13    1
    15    13    14   ar
    16    14    15   ar
    17    15    16   ar
    18    16    17   ar
    19    13    17   ar
    20    14    18    1
    21    10    18    1
    22     2    19    1
    23     1    20    1
    24     5    21    1
    25     7    22    1
    26    11    23    1
    27    11    24    1
    28    12    25    1
    29    12    26    1
    30    16    27    1
    31    17    28    1
    32    18    29    1
    33    18    30    1
    34     6    31    1
    35     8    32    1
    36    15    33    1
@<TRIPOS>SUBSTRUCTURE
     1 RES1        1 GROUP             0 ****  ****    0  
@<TRIPOS>MOLECULE
38.7108
    33    36     1     0     0
SMALL
NO_CHARGES
****
Generated from the CSD

@<TRIPOS>ATOM
     1 C       11.2461  -6.6574  21.6041   C.ar      1 RES1   0.0000
     2 C       11.5370  -5.5613  20.7899   C.ar      1 RES1   0.0000
     3 C       10.8964  -5.7682  19.5674   C.ar      1 RES1   0.0000
     4 C       10.1842  -6.9539  19.6876   C.ar      1 RES1   0.0000
     5 N       10.4291  -7.4706  20.9059   N.ar      1 RES1   0.0000
     6 N        9.4074  -7.4037  18.6875   N.ar      1 RES1   0.0000
     7 C        9.2912  -6.6424  17.5793   C.ar      1 RES1   0.0000
     8 N        9.9760  -5.4856  17.4342   N.ar      1 RES1   0.0000
     9 C       10.8456  -5.0531  18.3712   C.ar      1 RES1   0.0000
    10 N       11.6230  -3.9737  18.1299   N.pl3     1 RES1   0.0000
    11 C       12.8083  -4.1107  17.2887   C.3       1 RES1   0.0000
    12 C       12.6558  -3.2609  16.0055   C.3       1 RES1   0.0000
    13 C       12.1970  -1.8880  16.4703   C.ar      1 RES1   0.0000
    14 C       11.6028  -1.6279  17.6964   C.ar      1 RES1   0.0000
    15 N       11.3399  -0.3094  17.7550   N.ar      1 RES1   0.0000
    16 C       11.7536   0.2557  16.6005   C.ar      1 RES1   0.0000
    17 N       12.2761  -0.7140  15.8221   N.ar      1 RES1   0.0000
    18 C       11.3170  -2.6877  18.7497   C.3       1 RES1   0.0000
    19 Cl      12.5127  -4.1851  21.2555   Cl        1 RES1   0.0000
    20 H1      11.6082  -6.8210  22.6129   H         1 RES1   0.0000
    21 H2      10.0853  -8.2544  21.2159   H         1 RES1   0.0000
    22 H3       8.6312  -6.9673  16.7833   H         1 RES1   0.0000
    23 H4      12.9766  -5.1633  17.0142   H         1 RES1   0.0000
    24 H5      13.6780  -3.7473  17.8567   H         1 RES1   0.0000
    25 H6      13.6091  -3.1965  15.4600   H         1 RES1   0.0000
    26 H7      11.8816  -3.6970  15.3566   H         1 RES1   0.0000
    27 H8      11.6781   1.3066  16.3450   H         1 RES1   0.0000
    28 H9      12.6258  -0.5931  14.9904   H         1 RES1   0.0000
    29 H10     10.2737  -2.6294  19.0918   H         1 RES1   0.0000
    30 H11     11.9873  -2.5315  19.6078   H         1 RES1   0.0000
    31 ****     8.9287  -8.2784  18.7623   Du        1 RES1   0.0000
    32 ****     9.8343  -4.9360  16.6109   Du        1 RES1   0.0000
    33 ****    10.9120   0.1694  18.5216   Du        1 RES1   0.0000
@<TRIPOS>BOND
     1     1     2   ar
     2     2     3   ar
     3     3     4   ar
     4     4     5   ar
     5     1     5   ar
     6     4     6   ar
     7     6     7   ar
     8     7     8   ar
     9     8     9   ar
    10     3     9   ar
    11     9    10    1
    12    10    11    1
    13    11    12    1
    14    12    13    1
    15    13    14   ar
    16    14    15   ar
    17    15    16   ar
    18    16    17   ar
    19    13    17   ar
    20    14    18    1
    21    10    18    1
    22     2    19    1
    23     1    20    1
    24     5    21    1
    25     7    22    1
    26    11    23    1
    27    11    24    1
    28    12    25    1
    29    12    26    1
    30    16    27    1
    31    17    28    1
    32    18    29    1
    33    18    30    1
    34     6    31    1
    35     8    32    1
    36    15    33    1
@<TRIPOS>SUBSTRUCTURE
     1 RES1        1 GROUP             0 ****  ****    0  
@<TRIPOS>MOLECULE
38.2215
    33    36     1     0     0
SMALL
NO_CHARGES
****
Generated from the CSD

@<TRIPOS>ATOM
     1 C       10.9835  -4.9078  16.5108   C.ar      1 RES1   0.0000
     2 C       11.4532  -3.6075  16.7048   C.ar      1 RES1   0.0000
     3 C       11.5996  -3.4177  18.0796   C.ar      1 RES1   0.0000
     4 C       11.2728  -4.6239  18.6844   C.ar      1 RES1   0.0000
     5 N       10.8900  -5.4861  17.7246   N.ar      1 RES1   0.0000
     6 N       11.3703  -4.7842  20.0151   N.ar      1 RES1   0.0000
     7 C       11.8500  -3.7570  20.7471   C.ar      1 RES1   0.0000
     8 N       12.1724  -2.5705  20.1848   N.ar      1 RES1   0.0000
     9 C       11.9902  -2.3359  18.8683   C.ar      1 RES1   0.0000
    10 N       12.1814  -1.0952  18.3665   N.pl3     1 RES1   0.0000
    11 C       11.1293  -0.4670  17.5728   C.3       1 RES1   0.0000
    12 C       10.6005   0.7976  18.2892   C.3       1 RES1   0.0000
    13 C       11.8332   1.5888  18.6963   C.ar      1 RES1   0.0000
    14 C       13.1084   1.0564  18.8164   C.ar      1 RES1   0.0000
    15 N       13.9361   2.0502  19.1882   N.ar      1 RES1   0.0000
    16 C       13.2110   3.1836  19.3025   C.ar      1 RES1   0.0000
    17 N       11.9288   2.8939  18.9999   N.ar      1 RES1   0.0000
    18 C       13.4520  -0.4041  18.5651   C.3       1 RES1   0.0000
    19 Cl      11.8049  -2.4580  15.4329   Cl        1 RES1   0.0000
    20 H1      10.7424  -5.3674  15.5589   H         1 RES1   0.0000
    21 H2      10.6145  -6.3407  17.8744   H         1 RES1   0.0000
    22 H3      11.9801  -3.8865  21.8153   H         1 RES1   0.0000
    23 H4      10.2969  -1.1659  17.3991   H         1 RES1   0.0000
    24 H5      11.5577  -0.1750  16.6021   H         1 RES1   0.0000
    25 H6       9.9538   1.3869  17.6220   H         1 RES1   0.0000
    26 H7      10.0435   0.5110  19.1937   H         1 RES1   0.0000
    27 H8      13.5942   4.1567  19.5880   H         1 RES1   0.0000
    28 H9      11.2383   3.4871  19.0017   H         1 RES1   0.0000
    29 H10     14.0252  -0.8223  19.4051   H         1 RES1   0.0000
    30 H11     14.0518  -0.4793  17.6461   H         1 RES1   0.0000
    31 ****    11.0949  -5.6411  20.4509   Du        1 RES1   0.0000
    32 ****    12.5561  -1.8477  20.7595   Du        1 RES1   0.0000
    33 ****    14.9189   1.9642  19.3516   Du        1 RES1   0.0000
@<TRIPOS>BOND
     1     1     2   ar
     2     2     3   ar
     3     3     4   ar
     4     4     5   ar
     5     1     5   ar
     6     4     6   ar
     7     6     7   ar
     8     7     8   ar
     9     8     9   ar
    10     3     9   ar
    11     9    10    1
    12    10    11    1
    13    11    12    1
    14    12    13    1
    15    13    14   ar
    16    14    15   ar
    17    15    16   ar
    18    16    17   ar
    19    13    17   ar
    20    14    18    1
    21    10    18    1
    22     2    19    1
    23     1    20    1
    24     5    21    1
    25     7    22    1
    26    11    23    1
    27    11    24    1
    28    12    25    1
    29    12    26    1
    30    16    27    1
    31    17    28    1
    32    18    29    1
    33    18    30    1
    34     6    31    1
    35     8    32    1
    36    15    33    1
@<TRIPOS>SUBSTRUCTURE
     1 RES1        1 GROUP             0 ****  ****    0  
@<TRIPOS>MOLECULE
38.1177
    33    36     1     0     0
SMALL
NO_CHARGES
****
Generated from the CSD

@<TRIPOS>ATOM
     1 C       11.4741  -2.3064  15.2581   C.ar      1 RES1   0.0000
     2 C       11.9311  -2.8983  16.4370   C.ar      1 RES1   0.0000
     3 C       12.3809  -1.8737  17.2709   C.ar      1 RES1   0.0000
     4 C       12.1325  -0.6811  16.6047   C.ar      1 RES1   0.0000
     5 N       11.6104  -0.9731  15.3992   N.ar      1 RES1   0.0000
     6 N       12.4037   0.5047  17.1759   N.ar      1 RES1   0.0000
     7 C       12.8730   0.5100  18.4412   C.ar      1 RES1   0.0000
     8 N       13.1273  -0.6361  19.1118   N.ar      1 RES1   0.0000
     9 C       12.9670  -1.8461  18.5360   C.ar      1 RES1   0.0000
    10 N       13.3708  -2.9639  19.1804   N.pl3     1 RES1   0.0000
    11 C       14.4955  -3.7333  18.6564   C.3       1 RES1   0.0000
    12 C       15.6691  -3.7203  19.6637   C.3       1 RES1   0.0000
    13 C       15.0607  -4.0688  21.0127   C.ar      1 RES1   0.0000
    14 C       13.7151  -3.9472  21.3264   C.ar      1 RES1   0.0000
    15 N       13.5513  -4.3500  22.6000   N.ar      1 RES1   0.0000
    16 C       14.7567  -4.7174  23.0853   C.ar      1 RES1   0.0000
    17 N       15.6724  -4.5437  22.1103   N.ar      1 RES1   0.0000
    18 C       12.6553  -3.4365  20.3620   C.3       1 RES1   0.0000
    19 Cl      11.9096  -4.6137  16.7828   Cl        1 RES1   0.0000
    20 H1      11.0792  -2.8246  14.3914   H         1 RES1   0.0000
    21 H2      11.3761  -0.3564  14.7719   H         1 RES1   0.0000
    22 H3      13.0513   1.4591  18.9332   H         1 RES1   0.0000
    23 H4      14.8351  -3.3267  17.6916   H         1 RES1   0.0000
    24 H5      14.1633  -4.7720  18.5081   H         1 RES1   0.0000
    25 H6      16.4421  -4.4492  19.3773   H         1 RES1   0.0000
    26 H7      16.1064  -2.7121  19.7172   H         1 RES1   0.0000
    27 H8      14.9527  -5.0877  24.0852   H         1 RES1   0.0000
    28 H9      16.5626  -4.7192  22.1840   H         1 RES1   0.0000
    29 H10     12.0516  -2.6436  20.8266   H         1 RES1   0.0000
    30 H11     11.9972  -4.2705  20.0765   H         1 RES1   0.0000
    31 ****    12.2617   1.3596  16.6770   Du        1 RES1   0.0000
    32 ****    13.4425  -0.5858  20.0595   Du        1 RES1   0.0000
    33 ****    12.6860  -4.3731  23.1008   Du        1 RES1   0.0000
@<TRIPOS>BOND
     1     1     2   ar
     2     2     3   ar
     3     3     4   ar
     4     4     5   ar
     5     1     5   ar
     6     4     6   ar
     7     6     7   ar
     8     7     8   ar
     9     8     9   ar
    10     3     9   ar
    11     9    10    1
    12    10    11    1
    13    11    12    1
    14    12    13    1
    15    13    14   ar
    16    14    15   ar
    17    15    16   ar
    18    16    17   ar
    19    13    17   ar
    20    14    18    1
    21    10    18    1
    22     2    19    1
    23     1    20    1
    24     5    21    1
    25     7    22    1
    26    11    23    1
    27    11    24    1
    28    12    25    1
    29    12    26    1
    30    16    27    1
    31    17    28    1
    32    18    29    1
    33    18    30    1
    34     6    31    1
    35     8    32    1
    36    15    33    1
@<TRIPOS>SUBSTRUCTURE
     1 RES1        1 GROUP             0 ****  ****    0  
@<TRIPOS>MOLECULE
38.0516
    33    36     1     0     0
SMALL
NO_CHARGES
****
Generated from the CSD

@<TRIPOS>ATOM
     1 C       10.8568  -7.1480  21.1686   C.ar      1 RES1   0.0000
     2 C       11.1845  -5.9801  20.4774   C.ar      1 RES1   0.0000
     3 C       10.6343  -6.0837  19.1990   C.ar      1 RES1   0.0000
     4 C        9.9364  -7.2834  19.1628   C.ar      1 RES1   0.0000
     5 N       10.1048  -7.9044  20.3448   N.ar      1 RES1   0.0000
     6 N        9.2392  -7.6503  18.0741   N.ar      1 RES1   0.0000
     7 C        9.1871  -6.7941  17.0324   C.ar      1 RES1   0.0000
     8 N        9.8599  -5.6214  17.0394   N.ar      1 RES1   0.0000
     9 C       10.6545  -5.2648  18.0704   C.ar      1 RES1   0.0000
    10 N       11.4277  -4.1595  17.9815   N.pl3     1 RES1   0.0000
    11 C       12.6637  -4.2031  17.2057   C.3       1 RES1   0.0000
    12 C       12.5755  -3.2353  16.0025   C.3       1 RES1   0.0000
    13 C       12.0676  -1.9182  16.5669   C.ar      1 RES1   0.0000
    14 C       11.3964  -1.7832  17.7733   C.ar      1 RES1   0.0000
    15 N       11.1095  -0.4791  17.9411   N.ar      1 RES1   0.0000
    16 C       11.5831   0.1985  16.8734   C.ar      1 RES1   0.0000
    17 N       12.1671  -0.6866  16.0398   N.ar      1 RES1   0.0000
    18 C       11.0645  -2.9422  18.7011   C.3       1 RES1   0.0000
    19 Cl      12.1010  -4.6403  21.1312   Cl        1 RES1   0.0000
    20 H1      11.1505  -7.3974  22.1821   H         1 RES1   0.0000
    21 H2       9.7540  -8.7167  20.5589   H         1 RES1   0.0000
    22 H3       8.5900  -7.0538  16.1659   H         1 RES1   0.0000
    23 H4      12.8650  -5.2226  16.8430   H         1 RES1   0.0000
    24 H5      13.4916  -3.8872  17.8584   H         1 RES1   0.0000
    25 H6      13.5589  -3.1092  15.5254   H         1 RES1   0.0000
    26 H7      11.8490  -3.6148  15.2685   H         1 RES1   0.0000
    27 H8      11.5065   1.2683  16.7151   H         1 RES1   0.0000
    28 H9      12.5645  -0.4828  15.2465   H         1 RES1   0.0000
    29 H10     10.0015  -2.9275  18.9822   H         1 RES1   0.0000
    30 H11     11.6791  -2.8625  19.6099   H         1 RES1   0.0000
    31 ****     8.7718  -8.5336  18.0370   Du        1 RES1   0.0000
    32 ****     9.7663  -5.0018  16.2601   Du        1 RES1   0.0000
    33 ****    10.6285  -0.0806  18.7219   Du        1 RES1   0.0000
@<TRIPOS>BOND
     1     1     2   ar
     2     2     3   ar
     3     3     4   ar
     4     4     5   ar
     5     1     5   ar
     6     4     6   ar
     7     6     7   ar
     8     7     8   ar
     9     8     9   ar
    10     3     9   ar
    11     9    10    1
    12    10    11    1
    13    11    12    1
    14    12    13    1
    15    13    14   ar
    16    14    15   ar
    17    15    16   ar
    18    16    17   ar
    19    13    17   ar
    20    14    18    1
    21    10    18    1
    22     2    19    1
    23     1    20    1
    24     5    21    1
    25     7    22    1
    26    11    23    1
    27    11    24    1
    28    12    25    1
    29    12    26    1
    30    16    27    1
    31    17    28    1
    32    18    29    1
    33    18    30    1
    34     6    31    1
    35     8    32    1
    36    15    33    1
@<TRIPOS>SUBSTRUCTURE
     1 RES1        1 GROUP             0 ****  ****    0  
@<TRIPOS>MOLECULE
37.5385
    33    36     1     0     0
SMALL
NO_CHARGES
****
Generated from the CSD

@<TRIPOS>ATOM
     1 C       11.5111  -2.0980  15.3128   C.ar      1 RES1   0.0000
     2 C       11.8548  -1.4610  16.5066   C.ar      1 RES1   0.0000
     3 C       11.7077  -2.3937  17.5343   C.ar      1 RES1   0.0000
     4 C       11.3361  -3.5898  16.9353   C.ar      1 RES1   0.0000
     5 N       11.2072  -3.3763  15.6128   N.ar      1 RES1   0.0000
     6 N       11.1707  -4.7092  17.6602   N.ar      1 RES1   0.0000
     7 C       11.4309  -4.6558  18.9833   C.ar      1 RES1   0.0000
     8 N       11.7908  -3.5040  19.5929   N.ar      1 RES1   0.0000
     9 C       11.8661  -2.3373  18.9187   C.ar      1 RES1   0.0000
    10 N       12.0822  -1.1807  19.5844   N.pl3     1 RES1   0.0000
    11 C       13.2566  -1.0494  20.4419   C.3       1 RES1   0.0000
    12 C       14.1994   0.0477  19.8947   C.3       1 RES1   0.0000
    13 C       13.3144   1.2513  19.6127   C.ar      1 RES1   0.0000
    14 C       11.9395   1.1961  19.4385   C.ar      1 RES1   0.0000
    15 N       11.5024   2.4489  19.2135   N.ar      1 RES1   0.0000
    16 C       12.5667   3.2794  19.2428   C.ar      1 RES1   0.0000
    17 N       13.6686   2.5411  19.4878   N.ar      1 RES1   0.0000
    18 C       11.1213  -0.0851  19.4962   C.3       1 RES1   0.0000
    19 Cl      12.3893   0.1992  16.6507   Cl        1 RES1   0.0000
    20 H1      11.4955  -1.6474  14.3268   H         1 RES1   0.0000
    21 H2      10.9575  -4.0081  15.0070   H         1 RES1   0.0000
    22 H3      11.3488  -5.5611  19.5736   H         1 RES1   0.0000
    23 H4      13.8028  -2.0026  20.5099   H         1 RES1   0.0000
    24 H5      12.9179  -0.7602  21.4483   H         1 RES1   0.0000
    25 H6      14.9830   0.2947  20.6266   H         1 RES1   0.0000
    26 H7      14.6589  -0.2880  18.9530   H         1 RES1   0.0000
    27 H8      12.5388   4.3531  19.0951   H         1 RES1   0.0000
    28 H9      14.5168   2.8643  19.5568   H         1 RES1   0.0000
    29 H10     10.4696  -0.1743  18.6150   H         1 RES1   0.0000
    30 H11     10.5006  -0.0746  20.4043   H         1 RES1   0.0000
    31 ****    10.8632  -5.5585  17.2309   Du        1 RES1   0.0000
    32 ****    12.0068  -3.5169  20.5692   Du        1 RES1   0.0000
    33 ****    10.5529   2.7184  19.0524   Du        1 RES1   0.0000
@<TRIPOS>BOND
     1     1     2   ar
     2     2     3   ar
     3     3     4   ar
     4     4     5   ar
     5     1     5   ar
     6     4     6   ar
     7     6     7   ar
     8     7     8   ar
     9     8     9   ar
    10     3     9   ar
    11     9    10    1
    12    10    11    1
    13    11    12    1
    14    12    13    1
    15    13    14   ar
    16    14    15   ar
    17    15    16   ar
    18    16    17   ar
    19    13    17   ar
    20    14    18    1
    21    10    18    1
    22     2    19    1
    23     1    20    1
    24     5    21    1
    25     7    22    1
    26    11    23    1
    27    11    24    1
    28    12    25    1
    29    12    26    1
    30    16    27    1
    31    17    28    1
    32    18    29    1
    33    18    30    1
    34     6    31    1
    35     8    32    1
    36    15    33    1
@<TRIPOS>SUBSTRUCTURE
     1 RES1        1 GROUP             0 ****  ****    0  
@<TRIPOS>MOLECULE
36.9902
    33    36     1     0     0
SMALL
NO_CHARGES
****
Generated from the CSD

@<TRIPOS>ATOM
     1 C       14.4731  -2.8691  22.2293   C.ar      1 RES1   0.0000
     2 C       13.7501  -1.9648  21.4492   C.ar      1 RES1   0.0000
     3 C       13.0360  -1.1405  22.3200   C.ar      1 RES1   0.0000
     4 C       13.3870  -1.5239  23.6075   C.ar      1 RES1   0.0000
     5 N       14.2293  -2.5699  23.5205   N.ar      1 RES1   0.0000
     6 N       12.9063  -0.8757  24.6820   N.ar      1 RES1   0.0000
     7 C       12.1148   0.1980  24.4771   C.ar      1 RES1   0.0000
     8 N       11.7544   0.5910  23.2347   N.ar      1 RES1   0.0000
     9 C       12.1311  -0.0957  22.1356   C.ar      1 RES1   0.0000
    10 N       11.6324   0.2357  20.9235   N.pl3     1 RES1   0.0000
    11 C       11.8032   1.5951  20.4193   C.3       1 RES1   0.0000
    12 C       12.6771   1.5873  19.1432   C.3       1 RES1   0.0000
    13 C       12.0959   0.5030  18.2500   C.ar      1 RES1   0.0000
    14 C       11.2884  -0.5346  18.6921   C.ar      1 RES1   0.0000
    15 N       10.9654  -1.2882  17.6249   N.ar      1 RES1   0.0000
    16 C       11.5496  -0.7482  16.5338   C.ar      1 RES1   0.0000
    17 N       12.2370   0.3450  16.9235   N.ar      1 RES1   0.0000
    18 C       10.8768  -0.7391  20.1423   C.3       1 RES1   0.0000
    19 Cl      13.7741  -1.8912  19.7008   Cl        1 RES1   0.0000
    20 H1      15.1146  -3.6626  21.8628   H         1 RES1   0.0000
    21 H2      14.5885  -3.0076  24.2333   H         1 RES1   0.0000
    22 H3      11.7579   0.7606  25.3320   H         1 RES1   0.0000
    23 H4      12.2687   2.2412  21.1792   H         1 RES1   0.0000
    24 H5      10.8098   1.9976  20.1697   H         1 RES1   0.0000
    25 H6      12.6534   2.5673  18.6435   H         1 RES1   0.0000
    26 H7      13.7137   1.3228  19.4000   H         1 RES1   0.0000
    27 H8      11.4777  -1.1285  15.5211   H         1 RES1   0.0000
    28 H9      12.7200   0.8886  16.3759   H         1 RES1   0.0000
    29 H10     11.0740  -1.7718  20.4640   H         1 RES1   0.0000
    30 H11      9.8019  -0.5286  20.2439   H         1 RES1   0.0000
    31 ****    13.1289  -1.1806  25.6080   Du        1 RES1   0.0000
    32 ****    11.1939   1.4122  23.1273   Du        1 RES1   0.0000
    33 ****    10.3916  -2.1071  17.6378   Du        1 RES1   0.0000
@<TRIPOS>BOND
     1     1     2   ar
     2     2     3   ar
     3     3     4   ar
     4     4     5   ar
     5     1     5   ar
     6     4     6   ar
     7     6     7   ar
     8     7     8   ar
     9     8     9   ar
    10     3     9   ar
    11     9    10    1
    12    10    11    1
    13    11    12    1
    14    12    13    1
    15    13    14   ar
    16    14    15   ar
    17    15    16   ar
    18    16    17   ar
    19    13    17   ar
    20    14    18    1
    21    10    18    1
    22     2    19    1
    23     1    20    1
    24     5    21    1
    25     7    22    1
    26    11    23    1
    27    11    24    1
    28    12    25    1
    29    12    26    1
    30    16    27    1
    31    17    28    1
    32    18    29    1
    33    18    30    1
    34     6    31    1
    35     8    32    1
    36    15    33    1
@<TRIPOS>SUBSTRUCTURE
     1 RES1        1 GROUP             0 ****  ****    0  
@<TRIPOS>MOLECULE
33.7948
    33    36     1     0     0
SMALL
NO_CHARGES
****
Generated from the CSD

@<TRIPOS>ATOM
     1 C       13.1652  -0.7581  23.2723   C.ar      1 RES1   0.0000
     2 C       12.7233  -1.0923  21.9909   C.ar      1 RES1   0.0000
     3 C       13.4040  -0.2739  21.0884   C.ar      1 RES1   0.0000
     4 C       14.2851   0.4956  21.8362   C.ar      1 RES1   0.0000
     5 N       14.1045   0.1987  23.1363   N.ar      1 RES1   0.0000
     6 N       15.1340   1.3536  21.2452   N.ar      1 RES1   0.0000
     7 C       15.1489   1.4081  19.8969   C.ar      1 RES1   0.0000
     8 N       14.2998   0.6728  19.1444   N.ar      1 RES1   0.0000
     9 C       13.3625  -0.1216  19.7028   C.ar      1 RES1   0.0000
    10 N       12.4347  -0.7261  18.9272   N.pl3     1 RES1   0.0000
    11 C       11.3774   0.0708  18.3119   C.3       1 RES1   0.0000
    12 C       11.5004   0.0255  16.7709   C.3       1 RES1   0.0000
    13 C       11.6652  -1.4425  16.4116   C.ar      1 RES1   0.0000
    14 C       12.0849  -2.4281  17.2927   C.ar      1 RES1   0.0000
    15 N       12.1060  -3.5960  16.6244   N.ar      1 RES1   0.0000
    16 C       11.7118  -3.3630  15.3540   C.ar      1 RES1   0.0000
    17 N       11.4438  -2.0467  15.2324   N.ar      1 RES1   0.0000
    18 C       12.4501  -2.1748  18.7476   C.3       1 RES1   0.0000
    19 Cl      11.5454  -2.3315  21.6174   Cl        1 RES1   0.0000
    20 H1      12.8185  -1.1916  24.2037   H         1 RES1   0.0000
    21 H2      14.5584   0.5845  23.8247   H         1 RES1   0.0000
    22 H3      15.8610   2.0596  19.4036   H         1 RES1   0.0000
    23 H4      11.4230   1.1162  18.6534   H         1 RES1   0.0000
    24 H5      10.4073  -0.3579  18.6057   H         1 RES1   0.0000
    25 H6      10.6069   0.4530  16.2916   H         1 RES1   0.0000
    26 H7      12.3973   0.5761  16.4498   H         1 RES1   0.0000
    27 H8      11.6260  -4.1061  14.5693   H         1 RES1   0.0000
    28 H9      11.1593  -1.6332  14.4730   H         1 RES1   0.0000
    29 H10     13.4297  -2.6126  18.9880   H         1 RES1   0.0000
    30 H11     11.6842  -2.6274  19.3945   H         1 RES1   0.0000
    31 ****    15.7380   1.9356  21.7897   Du        1 RES1   0.0000
    32 ****    14.3680   0.7189  18.1478   Du        1 RES1   0.0000
    33 ****    12.3684  -4.4835  17.0032   Du        1 RES1   0.0000
@<TRIPOS>BOND
     1     1     2   ar
     2     2     3   ar
     3     3     4   ar
     4     4     5   ar
     5     1     5   ar
     6     4     6   ar
     7     6     7   ar
     8     7     8   ar
     9     8     9   ar
    10     3     9   ar
    11     9    10    1
    12    10    11    1
    13    11    12    1
    14    12    13    1
    15    13    14   ar
    16    14    15   ar
    17    15    16   ar
    18    16    17   ar
    19    13    17   ar
    20    14    18    1
    21    10    18    1
    22     2    19    1
    23     1    20    1
    24     5    21    1
    25     7    22    1
    26    11    23    1
    27    11    24    1
    28    12    25    1
    29    12    26    1
    30    16    27    1
    31    17    28    1
    32    18    29    1
    33    18    30    1
    34     6    31    1
    35     8    32    1
    36    15    33    1
@<TRIPOS>SUBSTRUCTURE
     1 RES1        1 GROUP             0 ****  ****    0  
@<TRIPOS>MOLECULE
33.7709
    33    36     1     0     0
SMALL
NO_CHARGES
****
Generated from the CSD

@<TRIPOS>ATOM
     1 C       11.4795  -4.5733  20.9313   C.ar      1 RES1   0.0000
     2 C       11.5173  -3.4856  20.0570   C.ar      1 RES1   0.0000
     3 C       11.3346  -3.9820  18.7655   C.ar      1 RES1   0.0000
     4 C       11.1311  -5.3497  18.8906   C.ar      1 RES1   0.0000
     5 N       11.2437  -5.6750  20.1916   N.ar      1 RES1   0.0000
     6 N       10.8659  -6.1148  17.8181   N.ar      1 RES1   0.0000
     7 C       10.7454  -5.5097  16.6179   C.ar      1 RES1   0.0000
     8 N       10.9419  -4.1806  16.4669   N.ar      1 RES1   0.0000
     9 C       11.3120  -3.3956  17.5005   C.ar      1 RES1   0.0000
    10 N       11.6446  -2.1029  17.2866   N.pl3     1 RES1   0.0000
    11 C       10.6561  -1.1857  16.7270   C.3       1 RES1   0.0000
    12 C       10.3197  -0.0730  17.7472   C.3       1 RES1   0.0000
    13 C       11.6574   0.4490  18.2465   C.ar      1 RES1   0.0000
    14 C       12.8565  -0.2428  18.1598   C.ar      1 RES1   0.0000
    15 N       13.8179   0.5306  18.6971   N.ar      1 RES1   0.0000
    16 C       13.2495   1.6821  19.1149   C.ar      1 RES1   0.0000
    17 N       11.9311   1.6249  18.8356   N.ar      1 RES1   0.0000
    18 C       12.9999  -1.6326  17.5580   C.3       1 RES1   0.0000
    19 Cl      11.7343  -1.8145  20.5291   Cl        1 RES1   0.0000
    20 H1      11.6118  -4.5367  22.0068   H         1 RES1   0.0000
    21 H2      11.1642  -6.5185  20.5244   H         1 RES1   0.0000
    22 H3      10.4844  -6.1056  15.7510   H         1 RES1   0.0000
    23 H4       9.7349  -1.7209  16.4503   H         1 RES1   0.0000
    24 H5      11.0854  -0.7251  15.8244   H         1 RES1   0.0000
    25 H6       9.7322   0.7291  17.2758   H         1 RES1   0.0000
    26 H7       9.7615  -0.4976  18.5949   H         1 RES1   0.0000
    27 H8      13.7647   2.5082  19.5918   H         1 RES1   0.0000
    28 H9      11.3235   2.2778  19.0176   H         1 RES1   0.0000
    29 H10     13.5426  -2.3018  18.2411   H         1 RES1   0.0000
    30 H11     13.5533  -1.5585  16.6102   H         1 RES1   0.0000
    31 ****    10.7607  -7.1052  17.9070   Du        1 RES1   0.0000
    32 ****    10.8094  -3.7683  15.5655   Du        1 RES1   0.0000
    33 ****    14.7863   0.2935  18.7738   Du        1 RES1   0.0000
@<TRIPOS>BOND
     1     1     2   ar
     2     2     3   ar
     3     3     4   ar
     4     4     5   ar
     5     1     5   ar
     6     4     6   ar
     7     6     7   ar
     8     7     8   ar
     9     8     9   ar
    10     3     9   ar
    11     9    10    1
    12    10    11    1
    13    11    12    1
    14    12    13    1
    15    13    14   ar
    16    14    15   ar
    17    15    16   ar
    18    16    17   ar
    19    13    17   ar
    20    14    18    1
    21    10    18    1
    22     2    19    1
    23     1    20    1
    24     5    21    1
    25     7    22    1
    26    11    23    1
    27    11    24    1
    28    12    25    1
    29    12    26    1
    30    16    27    1
    31    17    28    1
    32    18    29    1
    33    18    30    1
    34     6    31    1
    35     8    32    1
    36    15    33    1
@<TRIPOS>SUBSTRUCTURE
     1 RES1        1 GROUP             0 ****  ****    0  
@<TRIPOS>MOLECULE
32.4756
    33    36     1     0     0
SMALL
NO_CHARGES
****
Generated from the CSD

@<TRIPOS>ATOM
     1 C       14.3107   0.6287  20.7201   C.ar      1 RES1   0.0000
     2 C       13.5234  -0.3028  20.0408   C.ar      1 RES1   0.0000
     3 C       14.2007  -1.5226  20.0713   C.ar      1 RES1   0.0000
     4 C       15.3533  -1.3185  20.8180   C.ar      1 RES1   0.0000
     5 N       15.4007  -0.0214  21.1734   N.ar      1 RES1   0.0000
     6 N       16.1995  -2.3286  21.0819   N.ar      1 RES1   0.0000
     7 C       15.8715  -3.5641  20.6494   C.ar      1 RES1   0.0000
     8 N       14.7575  -3.7906  19.9175   N.ar      1 RES1   0.0000
     9 C       13.9376  -2.7862  19.5432   C.ar      1 RES1   0.0000
    10 N       12.9172  -3.0247  18.6890   N.pl3     1 RES1   0.0000
    11 C       13.0738  -2.7126  17.2714   C.3       1 RES1   0.0000
    12 C       12.9971  -4.0057  16.4265   C.3       1 RES1   0.0000
    13 C       11.7661  -4.7496  16.9189   C.ar      1 RES1   0.0000
    14 C       11.1565  -4.5404  18.1471   C.ar      1 RES1   0.0000
    15 N       10.1010  -5.3712  18.2297   N.ar      1 RES1   0.0000
    16 C       10.0385  -6.0898  17.0882   C.ar      1 RES1   0.0000
    17 N       11.0576  -5.7041  16.2931   N.ar      1 RES1   0.0000
    18 C       11.6429  -3.5382  19.1831   C.3       1 RES1   0.0000
    19 Cl      11.9659   0.0266  19.3138   Cl        1 RES1   0.0000
    20 H1      14.0841   1.6798  20.8596   H         1 RES1   0.0000
    21 H2      16.0706   0.3599  21.6577   H         1 RES1   0.0000
    22 H3      16.5191  -4.3978  20.8952   H         1 RES1   0.0000
    23 H4      14.0334  -2.2073  17.0834   H         1 RES1   0.0000
    24 H5      12.2537  -2.0419  16.9736   H         1 RES1   0.0000
    25 H6      12.9163  -3.7716  15.3544   H         1 RES1   0.0000
    26 H7      13.8875  -4.6260  16.6084   H         1 RES1   0.0000
    27 H8       9.2973  -6.8452  16.8530   H         1 RES1   0.0000
    28 H9      11.2374  -6.0373  15.4653   H         1 RES1   0.0000
    29 H10     11.7408  -4.0114  20.1708   H         1 RES1   0.0000
    30 H11     10.9211  -2.7108  19.2495   H         1 RES1   0.0000
    31 ****    17.0490  -2.1691  21.5849   Du        1 RES1   0.0000
    32 ****    14.5353  -4.7271  19.6463   Du        1 RES1   0.0000
    33 ****     9.4713  -5.4437  19.0032   Du        1 RES1   0.0000
@<TRIPOS>BOND
     1     1     2   ar
     2     2     3   ar
     3     3     4   ar
     4     4     5   ar
     5     1     5   ar
     6     4     6   ar
     7     6     7   ar
     8     7     8   ar
     9     8     9   ar
    10     3     9   ar
    11     9    10    1
    12    10    11    1
    13    11    12    1
    14    12    13    1
    15    13    14   ar
    16    14    15   ar
    17    15    16   ar
    18    16    17   ar
    19    13    17   ar
    20    14    18    1
    21    10    18    1
    22     2    19    1
    23     1    20    1
    24     5    21    1
    25     7    22    1
    26    11    23    1
    27    11    24    1
    28    12    25    1
    29    12    26    1
    30    16    27    1
    31    17    28    1
    32    18    29    1
    33    18    30    1
    34     6    31    1
    35     8    32    1
    36    15    33    1
@<TRIPOS>SUBSTRUCTURE
     1 RES1        1 GROUP             0 ****  ****    0  
@<TRIPOS>MOLECULE
31.6332
    33    36     1     0     0
SMALL
NO_CHARGES
****
Generated from the CSD

@<TRIPOS>ATOM
     1 C       13.9992   2.6797  19.9043   C.ar      1 RES1   0.0000
     2 C       13.8069   1.3628  20.3259   C.ar      1 RES1   0.0000
     3 C       12.6769   0.8750  19.6680   C.ar      1 RES1   0.0000
     4 C       12.2444   1.8849  18.8191   C.ar      1 RES1   0.0000
     5 N       13.0407   2.9551  18.9978   N.ar      1 RES1   0.0000
     6 N       11.1976   1.7020  17.9965   N.ar      1 RES1   0.0000
     7 C       10.6091   0.4877  17.9746   C.ar      1 RES1   0.0000
     8 N       11.0074  -0.5122  18.7928   N.ar      1 RES1   0.0000
     9 C       11.9856  -0.3355  19.7057   C.ar      1 RES1   0.0000
    10 N       12.2571  -1.3060  20.6068   N.pl3     1 RES1   0.0000
    11 C       12.2718  -0.9855  22.0311   C.3       1 RES1   0.0000
    12 C       11.1518  -1.7587  22.7659   C.3       1 RES1   0.0000
    13 C       11.2708  -3.2012  22.3008   C.ar      1 RES1   0.0000
    14 C       11.9160  -3.6058  21.1414   C.ar      1 RES1   0.0000
    15 N       11.8210  -4.9459  21.0637   N.ar      1 RES1   0.0000
    16 C       11.1352  -5.3842  22.1412   C.ar      1 RES1   0.0000
    17 N       10.8037  -4.3135  22.8916   N.ar      1 RES1   0.0000
    18 C       12.5905  -2.6562  20.1628   C.3       1 RES1   0.0000
    19 Cl      14.8279   0.5030  21.4577   Cl        1 RES1   0.0000
    20 H1      14.7782   3.3540  20.2419   H         1 RES1   0.0000
    21 H2      12.9486   3.7490  18.5621   H         1 RES1   0.0000
    22 H3       9.7944   0.3093  17.2823   H         1 RES1   0.0000
    23 H4      12.1390   0.0951  22.1928   H         1 RES1   0.0000
    24 H5      13.2458  -1.2903  22.4429   H         1 RES1   0.0000
    25 H6      11.2714  -1.6829  23.8570   H         1 RES1   0.0000
    26 H7      10.1679  -1.3661  22.4687   H         1 RES1   0.0000
    27 H8      10.8938  -6.4175  22.3632   H         1 RES1   0.0000
    28 H9      10.3374  -4.3397  23.6730   H         1 RES1   0.0000
    29 H10     12.2546  -2.8498  19.1338   H         1 RES1   0.0000
    30 H11     13.6800  -2.7965  20.2190   H         1 RES1   0.0000
    31 ****    10.8639   2.4452  17.4166   Du        1 RES1   0.0000
    32 ****    10.5655  -1.4062  18.7196   Du        1 RES1   0.0000
    33 ****    12.1940  -5.5186  20.3337   Du        1 RES1   0.0000
@<TRIPOS>BOND
     1     1     2   ar
     2     2     3   ar
     3     3     4   ar
     4     4     5   ar
     5     1     5   ar
     6     4     6   ar
     7     6     7   ar
     8     7     8   ar
     9     8     9   ar
    10     3     9   ar
    11     9    10    1
    12    10    11    1
    13    11    12    1
    14    12    13    1
    15    13    14   ar
    16    14    15   ar
    17    15    16   ar
    18    16    17   ar
    19    13    17   ar
    20    14    18    1
    21    10    18    1
    22     2    19    1
    23     1    20    1
    24     5    21    1
    25     7    22    1
    26    11    23    1
    27    11    24    1
    28    12    25    1
    29    12    26    1
    30    16    27    1
    31    17    28    1
    32    18    29    1
    33    18    30    1
    34     6    31    1
    35     8    32    1
    36    15    33    1
@<TRIPOS>SUBSTRUCTURE
     1 RES1        1 GROUP             0 ****  ****    0  
