@<TRIPOS>MOLECULE
fitting_pts
  1481     0     1     0     0
SMALL
USER_CHARGES
****
Generated from the CSD - Crystal connectivity not present

@<TRIPOS>ATOM
     1 20.62   10.5000  -6.0000  20.0000   C.3       1 RES1  20.6244
     2 20.62   11.0000  -6.0000  20.0000   C.3       1 RES1  20.6244
     3 17.36    9.0000  -8.0000  19.0000   C.3       1 RES1  17.3605
     4 17.36    9.0000  -7.5000  19.0000   C.3       1 RES1  17.3605
     5 17.36    9.0000  -7.0000  19.0000   C.3       1 RES1  17.3605
     6 17.36    9.0000  -6.5000  19.0000   C.3       1 RES1  17.3605
     7 17.36    9.5000  -9.0000  19.0000   C.3       1 RES1  17.3605
     8 17.36    9.5000  -8.5000  19.0000   C.3       1 RES1  17.3605
     9 17.36    9.5000  -8.0000  19.0000   C.3       1 RES1  17.3605
    10 17.36   10.0000  -9.0000  19.0000   C.3       1 RES1  17.3605
    11 17.36   10.5000  -9.0000  19.0000   C.3       1 RES1  17.3605
    12 17.90   10.0000  -8.0000  18.5000   C.3       1 RES1  17.9010
    13 17.90   10.0000  -8.0000  19.0000   C.3       1 RES1  17.9010
    14 17.90   10.0000  -7.5000  18.0000   C.3       1 RES1  17.9010
    15 17.90   10.0000  -7.5000  18.5000   C.3       1 RES1  17.9010
    16 17.90   10.0000  -7.5000  19.0000   C.3       1 RES1  17.9010
    17 17.90   10.0000  -7.0000  18.0000   C.3       1 RES1  17.9010
    18 17.90   10.0000  -7.0000  18.5000   C.3       1 RES1  17.9010
    19 17.90   10.0000  -7.0000  19.0000   C.3       1 RES1  17.9010
    20 17.90   10.0000  -6.5000  18.0000   C.3       1 RES1  17.9010
    21 17.90   10.0000  -6.5000  18.5000   C.3       1 RES1  17.9010
    22 17.90   10.0000  -6.5000  19.0000   C.3       1 RES1  17.9010
    23 17.90   10.0000  -6.0000  18.5000   C.3       1 RES1  17.9010
    24 17.90   10.0000  -6.0000  19.0000   C.3       1 RES1  17.9010
    25 17.90   10.0000  -6.0000  19.5000   C.3       1 RES1  17.9010
    26 17.90   10.0000  -5.5000  19.0000   C.3       1 RES1  17.9010
    27 17.90   10.0000  -5.5000  19.5000   C.3       1 RES1  17.9010
    28 17.90   10.5000  -8.5000  18.5000   C.3       1 RES1  17.9010
    29 17.90   10.5000  -8.5000  19.0000   C.3       1 RES1  17.9010
    30 17.90   10.5000  -8.0000  18.5000   C.3       1 RES1  17.9010
    31 17.90   10.5000  -8.0000  19.0000   C.3       1 RES1  17.9010
    32 17.90   10.5000  -7.5000  18.0000   C.3       1 RES1  17.9010
    33 17.90   10.5000  -7.5000  18.5000   C.3       1 RES1  17.9010
    34 17.90   10.5000  -7.5000  19.0000   C.3       1 RES1  17.9010
    35 17.90   10.5000  -7.0000  18.0000   C.3       1 RES1  17.9010
    36 17.90   10.5000  -7.0000  18.5000   C.3       1 RES1  17.9010
    37 17.90   10.5000  -6.5000  18.0000   C.3       1 RES1  17.9010
    38 17.90   10.5000  -6.5000  18.5000   C.3       1 RES1  17.9010
    39 17.90   10.5000  -6.0000  18.5000   C.3       1 RES1  17.9010
    40 17.90   10.5000  -5.5000  19.0000   C.3       1 RES1  17.9010
    41 17.90   10.5000  -5.5000  19.5000   C.3       1 RES1  17.9010
    42 17.90   11.0000  -8.5000  18.5000   C.3       1 RES1  17.9010
    43 17.90   11.0000  -8.5000  19.0000   C.3       1 RES1  17.9010
    44 17.90   11.0000  -8.0000  18.5000   C.3       1 RES1  17.9010
    45 17.90   11.0000  -8.0000  19.0000   C.3       1 RES1  17.9010
    46 17.90   11.0000  -7.5000  18.0000   C.3       1 RES1  17.9010
    47 17.90   11.0000  -7.5000  18.5000   C.3       1 RES1  17.9010
    48 17.90   11.0000  -7.5000  19.0000   C.3       1 RES1  17.9010
    49 17.90   11.0000  -7.0000  18.0000   C.3       1 RES1  17.9010
    50 17.90   11.0000  -7.0000  18.5000   C.3       1 RES1  17.9010
    51 17.90   11.0000  -6.5000  18.0000   C.3       1 RES1  17.9010
    52 17.90   11.0000  -6.5000  18.5000   C.3       1 RES1  17.9010
    53 17.90   11.0000  -6.0000  18.5000   C.3       1 RES1  17.9010
    54 17.90   11.0000  -5.5000  19.0000   C.3       1 RES1  17.9010
    55 17.90   11.0000  -5.5000  19.5000   C.3       1 RES1  17.9010
    56 17.90   11.5000  -8.5000  18.5000   C.3       1 RES1  17.9010
    57 17.90   11.5000  -8.5000  19.0000   C.3       1 RES1  17.9010
    58 17.90   11.5000  -8.0000  18.5000   C.3       1 RES1  17.9010
    59 17.90   11.5000  -8.0000  19.0000   C.3       1 RES1  17.9010
    60 17.90   11.5000  -7.5000  18.5000   C.3       1 RES1  17.9010
    61 17.90   11.5000  -7.5000  19.0000   C.3       1 RES1  17.9010
    62 17.90   11.5000  -5.5000  19.5000   C.3       1 RES1  17.9010
    63 17.90   11.5000  -5.5000  20.0000   C.3       1 RES1  17.9010
    64 17.90   11.5000  -5.5000  20.5000   C.3       1 RES1  17.9010
    65 17.90   11.5000  -5.5000  22.5000   C.3       1 RES1  17.9010
    66 17.90   12.0000  -6.0000  21.5000   C.3       1 RES1  17.9010
    67 17.90   12.0000  -6.0000  22.0000   C.3       1 RES1  17.9010
    68 17.90   12.0000  -6.0000  22.5000   C.3       1 RES1  17.9010
    69 17.35    9.0000  -8.5000  18.5000   C.3       1 RES1  17.3472
    70 17.35    9.0000  -8.5000  19.0000   C.3       1 RES1  17.3472
    71 17.35    9.0000  -8.0000  18.5000   C.3       1 RES1  17.3472
    72 17.35    9.0000  -7.5000  18.5000   C.3       1 RES1  17.3472
    73 17.35    9.5000  -8.5000  18.5000   C.3       1 RES1  17.3472
    74 17.35    9.5000  -8.0000  18.5000   C.3       1 RES1  17.3472
    75 17.66   10.5000  -7.0000  15.5000   C.3       1 RES1  17.6608
    76 17.66   10.5000  -6.5000  15.5000   C.3       1 RES1  17.6608
    77 17.66   10.5000  -6.0000  15.5000   C.3       1 RES1  17.6608
    78 17.66   11.0000  -7.0000  15.5000   C.3       1 RES1  17.6608
    79 17.66   11.0000  -6.5000  15.5000   C.3       1 RES1  17.6608
    80 17.66   11.0000  -6.0000  15.5000   C.3       1 RES1  17.6608
    81 17.66   11.5000  -7.0000  15.5000   C.3       1 RES1  17.6608
    82 17.66   11.5000  -6.5000  15.5000   C.3       1 RES1  17.6608
    83 17.66   11.5000  -6.0000  15.5000   C.3       1 RES1  17.6608
    84 17.71   10.0000  -7.0000  16.0000   C.3       1 RES1  17.7120
    85 17.71   10.0000  -7.0000  16.5000   C.3       1 RES1  17.7120
    86 17.71   10.0000  -6.5000  16.0000   C.3       1 RES1  17.7120
    87 17.71   10.0000  -6.5000  16.5000   C.3       1 RES1  17.7120
    88 18.17    9.0000  -8.5000  22.0000   C.3       1 RES1  18.1700
    89 20.53    9.5000  -9.0000  20.0000   C.3       1 RES1  20.5294
    90 20.53   10.0000  -9.0000  20.0000   C.3       1 RES1  20.5294
    91 20.53   10.5000  -9.0000  20.0000   C.3       1 RES1  20.5294
    92 17.72   12.0000  -2.5000  17.0000   C.3       1 RES1  17.7244
    93 17.72   12.5000  -2.5000  16.5000   C.3       1 RES1  17.7244
    94 17.72   12.5000  -2.5000  17.0000   C.3       1 RES1  17.7244
    95 17.36   12.0000  -7.0000  23.5000   C.3       1 RES1  17.3587
    96 17.36   12.0000  -6.5000  23.5000   C.3       1 RES1  17.3587
    97 17.36   12.5000  -6.5000  23.5000   C.3       1 RES1  17.3587
    98 17.36   13.0000  -6.5000  22.5000   C.3       1 RES1  17.3587
    99 17.36   13.0000  -6.5000  23.0000   C.3       1 RES1  17.3587
   100 17.36   13.0000  -6.5000  23.5000   C.3       1 RES1  17.3587
   101 19.12   11.0000  -9.0000  22.5000   C.3       1 RES1  19.1201
   102 19.12   11.5000  -9.0000  22.5000   C.3       1 RES1  19.1201
   103 19.12   12.0000  -9.0000  22.5000   C.3       1 RES1  19.1201
   104 19.70   11.5000  -6.5000  23.0000   C.3       1 RES1  19.7004
   105 17.59   14.0000  -8.5000  22.5000   C.3       1 RES1  17.5889
   106 17.59   14.0000  -8.5000  23.0000   C.3       1 RES1  17.5889
   107 17.59   14.0000  -8.5000  23.5000   C.3       1 RES1  17.5889
   108 21.04   11.5000  -6.5000  21.5000   C.3       1 RES1  21.0361
   109 21.04   11.5000  -6.5000  22.0000   C.3       1 RES1  21.0361
   110 21.04   11.5000  -6.5000  22.5000   C.3       1 RES1  21.0361
   111 17.81   11.5000  -5.0000  20.0000   C.3       1 RES1  17.8116
   112 20.77   11.5000  -7.5000  21.0000   C.3       1 RES1  20.7741
   113 20.77   11.5000  -7.0000  21.0000   C.3       1 RES1  20.7741
   114 20.77   11.5000  -6.5000  21.0000   C.3       1 RES1  20.7741
   115 17.32    9.5000  -6.5000  15.5000   C.3       1 RES1  17.3180
   116 17.32   10.0000  -6.5000  15.5000   C.3       1 RES1  17.3180
   117 17.49   11.5000  -4.0000  18.5000   C.3       1 RES1  17.4892
   118 17.49   11.5000  -4.0000  19.0000   C.3       1 RES1  17.4892
   119 17.49   11.5000  -3.5000  18.5000   C.3       1 RES1  17.4892
   120 17.49   11.5000  -3.5000  19.0000   C.3       1 RES1  17.4892
   121 17.49   11.5000  -3.0000  18.5000   C.3       1 RES1  17.4892
   122 17.49   11.5000  -3.0000  19.0000   C.3       1 RES1  17.4892
   123 21.95    9.0000  -8.0000  21.5000   C.3       1 RES1  21.9493
   124 21.95    9.0000  -8.0000  22.0000   C.3       1 RES1  21.9493
   125 21.95    9.0000  -8.0000  22.5000   C.3       1 RES1  21.9493
   126 21.95    9.5000  -8.0000  22.5000   C.3       1 RES1  21.9493
   127 21.95   10.0000  -8.0000  22.5000   C.3       1 RES1  21.9493
   128 21.95   10.0000  -7.5000  22.5000   C.3       1 RES1  21.9493
   129 21.95   10.0000  -7.0000  21.5000   C.3       1 RES1  21.9493
   130 21.95   10.0000  -7.0000  22.0000   C.3       1 RES1  21.9493
   131 21.95   10.0000  -7.0000  22.5000   C.3       1 RES1  21.9493
   132 17.67   13.0000  -3.5000  20.0000   C.3       1 RES1  17.6710
   133 17.67   13.0000  -3.0000  20.0000   C.3       1 RES1  17.6710
   134 17.67   13.0000  -2.5000  20.0000   C.3       1 RES1  17.6710
   135 17.67   13.5000  -3.5000  19.0000   C.3       1 RES1  17.6710
   136 17.67   13.5000  -3.5000  19.5000   C.3       1 RES1  17.6710
   137 17.67   13.5000  -3.5000  20.0000   C.3       1 RES1  17.6710
   138 17.67   13.5000  -3.0000  19.0000   C.3       1 RES1  17.6710
   139 17.67   13.5000  -3.0000  19.5000   C.3       1 RES1  17.6710
   140 17.67   13.5000  -3.0000  20.0000   C.3       1 RES1  17.6710
   141 17.67   13.5000  -2.5000  20.0000   C.3       1 RES1  17.6710
   142 17.67   14.0000  -3.5000  19.0000   C.3       1 RES1  17.6710
   143 17.67   14.0000  -3.5000  19.5000   C.3       1 RES1  17.6710
   144 17.67   14.0000  -3.5000  20.0000   C.3       1 RES1  17.6710
   145 17.67   14.0000  -3.0000  19.0000   C.3       1 RES1  17.6710
   146 17.67   14.0000  -3.0000  19.5000   C.3       1 RES1  17.6710
   147 17.67   14.0000  -3.0000  20.0000   C.3       1 RES1  17.6710
   148 17.67   14.0000  -2.5000  19.0000   C.3       1 RES1  17.6710
   149 17.67   14.0000  -2.5000  19.5000   C.3       1 RES1  17.6710
   150 17.67   14.0000  -2.5000  20.0000   C.3       1 RES1  17.6710
   151 17.91   11.5000  -5.5000  21.0000   C.3       1 RES1  17.9115
   152 17.91   11.5000  -5.5000  21.5000   C.3       1 RES1  17.9115
   153 17.91   11.5000  -5.5000  22.0000   C.3       1 RES1  17.9115
   154 19.35    9.5000  -9.5000  20.5000   C.3       1 RES1  19.3521
   155 19.35    9.5000  -9.5000  21.0000   C.3       1 RES1  19.3521
   156 19.35    9.5000  -9.5000  21.5000   C.3       1 RES1  19.3521
   157 19.35   10.0000  -9.5000  20.5000   C.3       1 RES1  19.3521
   158 19.35   10.0000  -9.5000  21.0000   C.3       1 RES1  19.3521
   159 19.35   10.0000  -9.5000  21.5000   C.3       1 RES1  19.3521
   160 19.35   10.5000  -9.5000  20.5000   C.3       1 RES1  19.3521
   161 19.35   10.5000  -9.5000  21.0000   C.3       1 RES1  19.3521
   162 19.35   10.5000  -9.5000  21.5000   C.3       1 RES1  19.3521
   163 17.25   13.5000  -6.0000  22.5000   C.3       1 RES1  17.2473
   164 17.25   13.5000  -6.0000  23.0000   C.3       1 RES1  17.2473
   165 17.25   13.5000  -6.0000  23.5000   C.3       1 RES1  17.2473
   166 21.27    9.0000  -8.0000  21.0000   C.3       1 RES1  21.2671
   167 20.06    9.0000  -8.5000  21.5000   C.3       1 RES1  20.0583
   168 19.87   12.0000  -8.5000  21.0000   C.3       1 RES1  19.8719
   169 19.87   12.0000  -8.5000  21.5000   C.3       1 RES1  19.8719
   170 19.87   12.0000  -8.5000  22.0000   C.3       1 RES1  19.8719
   171 19.87   12.0000  -8.0000  21.0000   C.3       1 RES1  19.8719
   172 19.87   12.0000  -8.0000  21.5000   C.3       1 RES1  19.8719
   173 19.87   12.0000  -8.0000  22.0000   C.3       1 RES1  19.8719
   174 19.87   12.0000  -7.5000  21.0000   C.3       1 RES1  19.8719
   175 19.87   12.0000  -7.5000  21.5000   C.3       1 RES1  19.8719
   176 19.87   12.0000  -7.5000  22.0000   C.3       1 RES1  19.8719
   177 17.04    9.0000  -9.0000  17.0000   C.3       1 RES1  17.0420
   178 17.04    9.0000  -8.5000  17.0000   C.3       1 RES1  17.0420
   179 20.23    9.0000  -6.0000  22.5000   C.3       1 RES1  20.2343
   180 20.23    9.0000  -5.5000  22.5000   C.3       1 RES1  20.2343
   181 17.23   13.0000  -4.0000  17.5000   C.3       1 RES1  17.2267
   182 17.46    9.5000  -7.0000  15.5000   C.3       1 RES1  17.4627
   183 17.46   10.0000  -7.0000  15.5000   C.3       1 RES1  17.4627
   184 17.81   10.5000  -1.0000  18.0000   C.3       1 RES1  17.8085
   185 17.81   10.5000  -0.5000  18.0000   C.3       1 RES1  17.8085
   186 17.81   10.5000   0.0000  17.5000   C.3       1 RES1  17.8085
   187 17.81   10.5000   0.0000  18.0000   C.3       1 RES1  17.8085
   188 17.81   11.0000  -1.0000  18.0000   C.3       1 RES1  17.8085
   189 17.81   11.0000  -0.5000  18.0000   C.3       1 RES1  17.8085
   190 17.81   11.0000   0.0000  17.5000   C.3       1 RES1  17.8085
   191 17.81   11.0000   0.0000  18.0000   C.3       1 RES1  17.8085
   192 17.81   11.5000  -1.0000  18.0000   C.3       1 RES1  17.8085
   193 17.81   11.5000  -0.5000  18.0000   C.3       1 RES1  17.8085
   194 17.81   11.5000   0.0000  17.5000   C.3       1 RES1  17.8085
   195 17.81   11.5000   0.0000  18.0000   C.3       1 RES1  17.8085
   196 17.57   14.0000  -9.5000  22.5000   C.3       1 RES1  17.5737
   197 17.57   14.0000  -9.5000  23.0000   C.3       1 RES1  17.5737
   198 17.57   14.0000  -9.5000  23.5000   C.3       1 RES1  17.5737
   199 17.57   14.0000  -9.0000  22.5000   C.3       1 RES1  17.5737
   200 17.57   14.0000  -9.0000  23.0000   C.3       1 RES1  17.5737
   201 17.57   14.0000  -9.0000  23.5000   C.3       1 RES1  17.5737
   202 17.57   14.5000  -9.5000  22.5000   C.3       1 RES1  17.5737
   203 17.57   14.5000  -9.5000  23.0000   C.3       1 RES1  17.5737
   204 17.57   14.5000  -9.5000  23.5000   C.3       1 RES1  17.5737
   205 17.57   14.5000  -9.0000  22.5000   C.3       1 RES1  17.5737
   206 17.57   14.5000  -9.0000  23.0000   C.3       1 RES1  17.5737
   207 17.57   14.5000  -9.0000  23.5000   C.3       1 RES1  17.5737
   208 17.57   14.5000  -8.5000  22.5000   C.3       1 RES1  17.5737
   209 17.57   14.5000  -8.5000  23.0000   C.3       1 RES1  17.5737
   210 17.57   14.5000  -8.5000  23.5000   C.3       1 RES1  17.5737
   211 17.74    9.5000  -7.5000  17.5000   C.3       1 RES1  17.7369
   212 17.74    9.5000  -7.5000  18.0000   C.3       1 RES1  17.7369
   213 17.74    9.5000  -7.5000  18.5000   C.3       1 RES1  17.7369
   214 17.74    9.5000  -7.0000  17.5000   C.3       1 RES1  17.7369
   215 17.74    9.5000  -7.0000  18.0000   C.3       1 RES1  17.7369
   216 17.74    9.5000  -7.0000  18.5000   C.3       1 RES1  17.7369
   217 17.74    9.5000  -6.5000  17.5000   C.3       1 RES1  17.7369
   218 17.74    9.5000  -6.5000  18.0000   C.3       1 RES1  17.7369
   219 17.74    9.5000  -6.5000  18.5000   C.3       1 RES1  17.7369
   220 17.10   10.5000  -9.5000  15.5000   C.3       1 RES1  17.0990
   221 17.10   10.5000  -9.5000  16.0000   C.3       1 RES1  17.0990
   222 17.10   10.5000  -9.5000  16.5000   C.3       1 RES1  17.0990
   223 17.10   11.0000  -9.5000  15.5000   C.3       1 RES1  17.0990
   224 17.10   11.0000  -9.5000  16.0000   C.3       1 RES1  17.0990
   225 17.10   11.0000  -9.5000  16.5000   C.3       1 RES1  17.0990
   226 17.10   11.5000  -9.5000  15.5000   C.3       1 RES1  17.0990
   227 17.10   11.5000  -9.5000  16.0000   C.3       1 RES1  17.0990
   228 17.10   11.5000  -9.5000  16.5000   C.3       1 RES1  17.0990
   229 20.17    9.0000  -5.0000  22.5000   C.3       1 RES1  20.1682
   230 20.17    9.5000  -5.0000  22.5000   C.3       1 RES1  20.1682
   231 20.17   10.0000  -5.0000  22.5000   C.3       1 RES1  20.1682
   232 17.36   11.5000  -6.0000  23.0000   C.3       1 RES1  17.3600
   233 17.36   11.5000  -5.5000  23.0000   C.3       1 RES1  17.3600
   234 17.49    9.5000  -6.5000  16.0000   C.3       1 RES1  17.4902
   235 17.49    9.5000  -6.5000  16.5000   C.3       1 RES1  17.4902
   236 17.49    9.5000  -6.5000  17.0000   C.3       1 RES1  17.4902
   237 17.71   10.5000  -5.0000  22.0000   C.3       1 RES1  17.7108
   238 17.71   10.5000  -5.0000  22.5000   C.3       1 RES1  17.7108
   239 17.71   10.5000  -5.0000  23.0000   C.3       1 RES1  17.7108
   240 17.07    9.0000  -7.0000  18.0000   C.3       1 RES1  17.0726
   241 17.43   10.5000  -5.0000  21.0000   C.3       1 RES1  17.4297
   242 17.43   10.5000  -5.0000  21.5000   C.3       1 RES1  17.4297
   243 17.43   11.0000  -5.0000  21.0000   C.3       1 RES1  17.4297
   244 17.43   11.0000  -5.0000  21.5000   C.3       1 RES1  17.4297
   245 17.43   11.0000  -5.0000  22.0000   C.3       1 RES1  17.4297
   246 17.43   11.5000  -5.0000  21.0000   C.3       1 RES1  17.4297
   247 17.43   11.5000  -5.0000  21.5000   C.3       1 RES1  17.4297
   248 17.43   11.5000  -5.0000  22.0000   C.3       1 RES1  17.4297
   249 18.49   10.5000  -3.0000  14.0000   C.3       1 RES1  18.4874
   250 18.49   10.5000  -3.0000  14.5000   C.3       1 RES1  18.4874
   251 18.49   10.5000  -3.0000  15.0000   C.3       1 RES1  18.4874
   252 18.49   10.5000  -2.5000  14.0000   C.3       1 RES1  18.4874
   253 18.49   10.5000  -2.0000  14.0000   C.3       1 RES1  18.4874
   254 18.49   11.0000  -3.0000  14.0000   C.3       1 RES1  18.4874
   255 18.49   11.0000  -3.0000  14.5000   C.3       1 RES1  18.4874
   256 18.49   11.0000  -2.5000  14.0000   C.3       1 RES1  18.4874
   257 18.49   11.0000  -2.0000  14.0000   C.3       1 RES1  18.4874
   258 18.49   11.5000  -3.0000  14.0000   C.3       1 RES1  18.4874
   259 18.49   11.5000  -3.0000  14.5000   C.3       1 RES1  18.4874
   260 18.49   11.5000  -2.5000  14.0000   C.3       1 RES1  18.4874
   261 18.49   11.5000  -2.0000  14.0000   C.3       1 RES1  18.4874
   262 17.76   12.5000  -9.0000  21.5000   C.3       1 RES1  17.7631
   263 17.76   12.5000  -9.0000  22.0000   C.3       1 RES1  17.7631
   264 17.76   12.5000  -9.0000  22.5000   C.3       1 RES1  17.7631
   265 17.76   12.5000  -8.5000  21.5000   C.3       1 RES1  17.7631
   266 17.76   12.5000  -8.5000  22.0000   C.3       1 RES1  17.7631
   267 17.76   12.5000  -8.5000  22.5000   C.3       1 RES1  17.7631
   268 17.76   12.5000  -8.0000  21.5000   C.3       1 RES1  17.7631
   269 17.76   13.0000  -9.0000  21.5000   C.3       1 RES1  17.7631
   270 17.76   13.0000  -9.0000  22.0000   C.3       1 RES1  17.7631
   271 17.76   13.0000  -9.0000  22.5000   C.3       1 RES1  17.7631
   272 17.76   13.0000  -8.5000  21.5000   C.3       1 RES1  17.7631
   273 17.76   13.0000  -8.5000  22.0000   C.3       1 RES1  17.7631
   274 17.76   13.0000  -8.5000  22.5000   C.3       1 RES1  17.7631
   275 17.76   13.0000  -8.0000  21.5000   C.3       1 RES1  17.7631
   276 17.63   10.5000  -5.5000  23.5000   C.3       1 RES1  17.6299
   277 18.80   10.5000  -4.5000  15.0000   C.3       1 RES1  18.8033
   278 18.80   10.5000  -4.5000  15.5000   C.3       1 RES1  18.8033
   279 18.80   10.5000  -4.5000  16.0000   C.3       1 RES1  18.8033
   280 18.80   10.5000  -4.0000  15.0000   C.3       1 RES1  18.8033
   281 18.80   10.5000  -4.0000  15.5000   C.3       1 RES1  18.8033
   282 18.80   10.5000  -4.0000  16.0000   C.3       1 RES1  18.8033
   283 18.80   10.5000  -3.5000  15.0000   C.3       1 RES1  18.8033
   284 18.80   10.5000  -3.5000  15.5000   C.3       1 RES1  18.8033
   285 18.80   10.5000  -3.5000  16.0000   C.3       1 RES1  18.8033
   286 17.90   10.0000  -5.0000  19.5000   C.3       1 RES1  17.9010
   287 17.90   10.0000  -5.0000  20.0000   C.3       1 RES1  17.9010
   288 17.90   10.0000  -5.0000  20.5000   C.3       1 RES1  17.9010
   289 17.90   10.5000  -5.0000  19.5000   C.3       1 RES1  17.9010
   290 17.90   10.5000  -5.0000  20.0000   C.3       1 RES1  17.9010
   291 17.90   10.5000  -5.0000  20.5000   C.3       1 RES1  17.9010
   292 17.90   11.0000  -5.0000  19.5000   C.3       1 RES1  17.9010
   293 17.90   11.0000  -5.0000  20.0000   C.3       1 RES1  17.9010
   294 17.90   11.0000  -5.0000  20.5000   C.3       1 RES1  17.9010
   295 17.24    8.5000  -5.0000  23.5000   C.3       1 RES1  17.2360
   296 17.24    9.0000  -5.0000  23.5000   C.3       1 RES1  17.2360
   297 17.92   12.0000  -1.5000  14.5000   C.3       1 RES1  17.9191
   298 20.84    9.0000  -8.5000  20.0000   C.3       1 RES1  20.8425
   299 20.84    9.0000  -8.5000  20.5000   C.3       1 RES1  20.8425
   300 20.84    9.0000  -8.5000  21.0000   C.3       1 RES1  20.8425
   301 20.84    9.0000  -8.0000  20.0000   C.3       1 RES1  20.8425
   302 20.84    9.0000  -8.0000  20.5000   C.3       1 RES1  20.8425
   303 17.84   12.5000  -2.5000  18.5000   C.3       1 RES1  17.8393
   304 17.84   12.5000  -2.5000  19.0000   C.3       1 RES1  17.8393
   305 17.84   12.5000  -2.5000  19.5000   C.3       1 RES1  17.8393
   306 17.84   12.5000  -2.0000  18.5000   C.3       1 RES1  17.8393
   307 17.84   12.5000  -2.0000  19.0000   C.3       1 RES1  17.8393
   308 17.84   12.5000  -2.0000  19.5000   C.3       1 RES1  17.8393
   309 17.84   12.5000  -1.5000  18.5000   C.3       1 RES1  17.8393
   310 17.84   12.5000  -1.5000  19.0000   C.3       1 RES1  17.8393
   311 17.84   12.5000  -1.5000  19.5000   C.3       1 RES1  17.8393
   312 17.84   13.0000  -2.5000  19.0000   C.3       1 RES1  17.8393
   313 17.84   13.0000  -2.5000  19.5000   C.3       1 RES1  17.8393
   314 17.84   13.0000  -2.0000  18.5000   C.3       1 RES1  17.8393
   315 17.84   13.0000  -2.0000  19.0000   C.3       1 RES1  17.8393
   316 17.84   13.0000  -2.0000  19.5000   C.3       1 RES1  17.8393
   317 17.84   13.0000  -1.5000  18.5000   C.3       1 RES1  17.8393
   318 17.84   13.0000  -1.5000  19.0000   C.3       1 RES1  17.8393
   319 17.84   13.0000  -1.5000  19.5000   C.3       1 RES1  17.8393
   320 17.84   13.5000  -2.5000  19.0000   C.3       1 RES1  17.8393
   321 17.84   13.5000  -2.5000  19.5000   C.3       1 RES1  17.8393
   322 17.84   13.5000  -2.0000  18.5000   C.3       1 RES1  17.8393
   323 17.84   13.5000  -2.0000  19.0000   C.3       1 RES1  17.8393
   324 17.84   13.5000  -2.0000  19.5000   C.3       1 RES1  17.8393
   325 17.84   13.5000  -1.5000  18.5000   C.3       1 RES1  17.8393
   326 17.84   13.5000  -1.5000  19.0000   C.3       1 RES1  17.8393
   327 17.84   13.5000  -1.5000  19.5000   C.3       1 RES1  17.8393
   328 17.71   10.0000  -8.5000  18.5000   C.3       1 RES1  17.7076
   329 17.71   10.0000  -8.5000  19.0000   C.3       1 RES1  17.7076
   330 18.82    9.5000  -6.5000  23.5000   C.3       1 RES1  18.8209
   331 18.82    9.5000  -6.0000  23.5000   C.3       1 RES1  18.8209
   332 18.82    9.5000  -5.5000  23.5000   C.3       1 RES1  18.8209
   333 19.90   11.0000  -5.5000  15.5000   C.3       1 RES1  19.9029
   334 19.90   11.0000  -5.5000  16.0000   C.3       1 RES1  19.9029
   335 19.90   11.0000  -5.5000  16.5000   C.3       1 RES1  19.9029
   336 19.90   11.0000  -5.0000  15.5000   C.3       1 RES1  19.9029
   337 19.90   11.0000  -5.0000  16.0000   C.3       1 RES1  19.9029
   338 19.90   11.0000  -5.0000  16.5000   C.3       1 RES1  19.9029
   339 19.90   11.0000  -4.5000  16.5000   C.3       1 RES1  19.9029
   340 19.90   11.5000  -5.5000  15.5000   C.3       1 RES1  19.9029
   341 19.90   11.5000  -5.5000  16.0000   C.3       1 RES1  19.9029
   342 19.90   11.5000  -5.5000  16.5000   C.3       1 RES1  19.9029
   343 19.90   11.5000  -5.0000  15.5000   C.3       1 RES1  19.9029
   344 19.90   11.5000  -5.0000  16.0000   C.3       1 RES1  19.9029
   345 19.90   11.5000  -5.0000  16.5000   C.3       1 RES1  19.9029
   346 19.90   11.5000  -4.5000  16.5000   C.3       1 RES1  19.9029
   347 19.90   12.0000  -5.5000  15.5000   C.3       1 RES1  19.9029
   348 19.90   12.0000  -5.5000  16.0000   C.3       1 RES1  19.9029
   349 19.90   12.0000  -5.5000  16.5000   C.3       1 RES1  19.9029
   350 19.90   12.0000  -5.0000  15.5000   C.3       1 RES1  19.9029
   351 19.90   12.0000  -5.0000  16.0000   C.3       1 RES1  19.9029
   352 19.90   12.0000  -5.0000  16.5000   C.3       1 RES1  19.9029
   353 19.90   12.0000  -4.5000  16.5000   C.3       1 RES1  19.9029
   354 17.44   10.5000  -1.5000  16.0000   C.3       1 RES1  17.4447
   355 17.44   10.5000  -1.0000  15.0000   C.3       1 RES1  17.4447
   356 17.44   10.5000  -1.0000  15.5000   C.3       1 RES1  17.4447
   357 17.44   12.5000  -1.5000  15.0000   C.3       1 RES1  17.4368
   358 17.44   12.5000  -1.5000  15.5000   C.3       1 RES1  17.4368
   359 17.44   12.5000  -1.5000  16.0000   C.3       1 RES1  17.4368
   360 20.00   11.5000  -6.0000  21.0000   C.3       1 RES1  19.9974
   361 20.00   11.5000  -6.0000  21.5000   C.3       1 RES1  19.9974
   362 20.00   11.5000  -6.0000  22.0000   C.3       1 RES1  19.9974
   363 17.28   12.0000  -9.0000  16.0000   C.3       1 RES1  17.2772
   364 17.28   12.0000  -9.0000  16.5000   C.3       1 RES1  17.2772
   365 17.28   12.0000  -9.0000  17.0000   C.3       1 RES1  17.2772
   366 17.57   11.0000  -7.5000  15.5000   C.3       1 RES1  17.5704
   367 17.57   11.5000  -8.5000  15.5000   C.3       1 RES1  17.5704
   368 17.57   11.5000  -8.0000  15.5000   C.3       1 RES1  17.5704
   369 17.57   11.5000  -7.5000  15.5000   C.3       1 RES1  17.5704
   370 19.73    9.5000  -8.5000  22.5000   C.3       1 RES1  19.7287
   371 19.73   10.0000  -8.5000  22.5000   C.3       1 RES1  19.7287
   372 17.76   11.5000  -7.5000  17.5000   C.3       1 RES1  17.7616
   373 17.76   11.5000  -7.5000  18.0000   C.3       1 RES1  17.7616
   374 20.30    9.0000  -5.0000  21.0000   C.3       1 RES1  20.3033
   375 20.30    9.0000  -5.0000  21.5000   C.3       1 RES1  20.3033
   376 20.30    9.0000  -5.0000  22.0000   C.3       1 RES1  20.3033
   377 20.30    9.5000  -5.0000  21.0000   C.3       1 RES1  20.3033
   378 20.30    9.5000  -5.0000  21.5000   C.3       1 RES1  20.3033
   379 20.30    9.5000  -5.0000  22.0000   C.3       1 RES1  20.3033
   380 20.30   10.0000  -5.0000  21.0000   C.3       1 RES1  20.3033
   381 20.30   10.0000  -5.0000  21.5000   C.3       1 RES1  20.3033
   382 20.30   10.0000  -5.0000  22.0000   C.3       1 RES1  20.3033
   383 17.96   12.0000  -6.5000  21.5000   C.3       1 RES1  17.9626
   384 17.96   12.0000  -6.5000  22.0000   C.3       1 RES1  17.9626
   385 17.96   12.0000  -6.5000  22.5000   C.3       1 RES1  17.9626
   386 19.87    9.0000  -8.5000  19.5000   C.3       1 RES1  19.8725
   387 19.87    9.5000  -8.5000  19.5000   C.3       1 RES1  19.8725
   388 19.87   10.0000  -8.5000  19.5000   C.3       1 RES1  19.8725
   389 18.26   10.5000  -1.0000  16.0000   C.3       1 RES1  18.2553
   390 18.26   10.5000  -1.0000  16.5000   C.3       1 RES1  18.2553
   391 18.26   10.5000  -1.0000  17.0000   C.3       1 RES1  18.2553
   392 18.26   10.5000  -0.5000  16.0000   C.3       1 RES1  18.2553
   393 18.26   10.5000  -0.5000  16.5000   C.3       1 RES1  18.2553
   394 18.26   10.5000  -0.5000  17.0000   C.3       1 RES1  18.2553
   395 18.26   10.5000   0.0000  16.0000   C.3       1 RES1  18.2553
   396 18.26   10.5000   0.0000  16.5000   C.3       1 RES1  18.2553
   397 18.26   10.5000   0.0000  17.0000   C.3       1 RES1  18.2553
   398 21.89   10.0000  -7.5000  23.0000   C.3       1 RES1  21.8919
   399 21.89   10.0000  -7.0000  23.0000   C.3       1 RES1  21.8919
   400 21.89   10.0000  -6.5000  22.0000   C.3       1 RES1  21.8919
   401 21.89   10.0000  -6.5000  22.5000   C.3       1 RES1  21.8919
   402 21.89   10.0000  -6.5000  23.0000   C.3       1 RES1  21.8919
   403 21.89   10.5000  -7.5000  22.5000   C.3       1 RES1  21.8919
   404 21.89   10.5000  -7.5000  23.0000   C.3       1 RES1  21.8919
   405 21.89   10.5000  -7.0000  22.0000   C.3       1 RES1  21.8919
   406 21.89   10.5000  -7.0000  22.5000   C.3       1 RES1  21.8919
   407 21.89   10.5000  -7.0000  23.0000   C.3       1 RES1  21.8919
   408 21.89   10.5000  -6.5000  22.0000   C.3       1 RES1  21.8919
   409 21.89   10.5000  -6.5000  22.5000   C.3       1 RES1  21.8919
   410 21.89   10.5000  -6.5000  23.0000   C.3       1 RES1  21.8919
   411 21.89   11.0000  -7.5000  22.0000   C.3       1 RES1  21.8919
   412 21.89   11.0000  -7.5000  22.5000   C.3       1 RES1  21.8919
   413 21.89   11.0000  -7.5000  23.0000   C.3       1 RES1  21.8919
   414 21.89   11.0000  -7.0000  22.0000   C.3       1 RES1  21.8919
   415 21.89   11.0000  -7.0000  22.5000   C.3       1 RES1  21.8919
   416 21.89   11.0000  -7.0000  23.0000   C.3       1 RES1  21.8919
   417 21.89   11.0000  -6.5000  22.0000   C.3       1 RES1  21.8919
   418 21.89   11.0000  -6.5000  22.5000   C.3       1 RES1  21.8919
   419 21.89   11.0000  -6.5000  23.0000   C.3       1 RES1  21.8919
   420 19.51    9.5000  -7.5000  23.0000   C.3       1 RES1  19.5112
   421 19.73   10.0000  -8.0000  23.0000   C.3       1 RES1  19.7287
   422 17.79   11.0000  -9.0000  15.0000   C.3       1 RES1  17.7875
   423 17.79   11.0000  -9.0000  15.5000   C.3       1 RES1  17.7875
   424 17.79   11.0000  -8.5000  15.0000   C.3       1 RES1  17.7875
   425 17.79   11.0000  -8.5000  15.5000   C.3       1 RES1  17.7875
   426 17.79   11.0000  -8.0000  15.0000   C.3       1 RES1  17.7875
   427 17.79   11.0000  -8.0000  15.5000   C.3       1 RES1  17.7875
   428 17.65   12.0000  -8.5000  16.0000   C.3       1 RES1  17.6469
   429 17.65   12.0000  -8.5000  16.5000   C.3       1 RES1  17.6469
   430 17.65   12.0000  -8.5000  17.0000   C.3       1 RES1  17.6469
   431 17.65   12.0000  -8.0000  16.0000   C.3       1 RES1  17.6469
   432 17.65   12.0000  -8.0000  16.5000   C.3       1 RES1  17.6469
   433 17.65   12.0000  -8.0000  17.0000   C.3       1 RES1  17.6469
   434 17.65   12.0000  -7.5000  16.0000   C.3       1 RES1  17.6469
   435 17.65   12.0000  -7.5000  16.5000   C.3       1 RES1  17.6469
   436 17.65   12.0000  -7.5000  17.0000   C.3       1 RES1  17.6469
   437 17.20   12.5000 -10.0000  23.0000   C.3       1 RES1  17.2032
   438 17.20   12.5000 -10.0000  23.5000   C.3       1 RES1  17.2032
   439 17.20   12.5000 -10.0000  24.0000   C.3       1 RES1  17.2032
   440 17.20   13.0000 -10.0000  23.0000   C.3       1 RES1  17.2032
   441 17.20   13.0000 -10.0000  23.5000   C.3       1 RES1  17.2032
   442 17.20   13.0000 -10.0000  24.0000   C.3       1 RES1  17.2032
   443 17.20   13.5000 -10.0000  23.0000   C.3       1 RES1  17.2032
   444 17.20   13.5000 -10.0000  23.5000   C.3       1 RES1  17.2032
   445 17.20   13.5000 -10.0000  24.0000   C.3       1 RES1  17.2032
   446 19.50   10.5000  -8.5000  19.5000   C.3       1 RES1  19.5030
   447 17.54   12.0000  -9.5000  24.5000   C.3       1 RES1  17.5387
   448 17.54   12.5000  -9.5000  24.5000   C.3       1 RES1  17.5387
   449 17.54   13.0000  -9.5000  24.5000   C.3       1 RES1  17.5387
   450 22.01    9.0000  -7.5000  20.0000   C.3       1 RES1  22.0122
   451 22.01    9.0000  -7.5000  20.5000   C.3       1 RES1  22.0122
   452 22.01    9.0000  -7.0000  20.0000   C.3       1 RES1  22.0122
   453 22.01    9.0000  -7.0000  20.5000   C.3       1 RES1  22.0122
   454 22.01    9.0000  -6.5000  20.0000   C.3       1 RES1  22.0122
   455 22.01    9.0000  -6.5000  20.5000   C.3       1 RES1  22.0122
   456 22.01    9.5000  -7.5000  20.0000   C.3       1 RES1  22.0122
   457 22.01    9.5000  -7.5000  20.5000   C.3       1 RES1  22.0122
   458 22.01    9.5000  -7.0000  20.0000   C.3       1 RES1  22.0122
   459 22.01    9.5000  -7.0000  20.5000   C.3       1 RES1  22.0122
   460 22.01    9.5000  -6.5000  20.0000   C.3       1 RES1  22.0122
   461 22.01    9.5000  -6.5000  20.5000   C.3       1 RES1  22.0122
   462 22.01   10.0000  -7.5000  20.0000   C.3       1 RES1  22.0122
   463 22.01   10.0000  -7.5000  20.5000   C.3       1 RES1  22.0122
   464 22.01   10.0000  -7.0000  20.0000   C.3       1 RES1  22.0122
   465 22.01   10.0000  -7.0000  20.5000   C.3       1 RES1  22.0122
   466 22.01   10.0000  -7.0000  21.0000   C.3       1 RES1  22.0122
   467 22.01   10.0000  -6.5000  20.0000   C.3       1 RES1  22.0122
   468 22.01   10.0000  -6.5000  20.5000   C.3       1 RES1  22.0122
   469 22.01   10.0000  -6.5000  21.0000   C.3       1 RES1  22.0122
   470 19.62   12.0000  -2.5000  16.5000   C.3       1 RES1  19.6225
   471 19.62   12.0000  -2.0000  16.5000   C.3       1 RES1  19.6225
   472 17.36   12.0000  -6.0000  23.0000   C.3       1 RES1  17.3599
   473 18.18   11.5000  -4.5000  17.5000   C.3       1 RES1  18.1814
   474 18.18   12.0000  -4.5000  17.5000   C.3       1 RES1  18.1814
   475 18.18   12.5000  -4.5000  16.5000   C.3       1 RES1  18.1814
   476 18.18   12.5000  -4.5000  17.0000   C.3       1 RES1  18.1814
   477 18.18   12.5000  -4.5000  17.5000   C.3       1 RES1  18.1814
   478 17.87   12.0000  -9.5000  21.5000   C.3       1 RES1  17.8750
   479 17.87   12.0000  -9.5000  22.0000   C.3       1 RES1  17.8750
   480 17.87   12.0000  -9.5000  22.5000   C.3       1 RES1  17.8750
   481 17.96    8.0000  -7.5000  21.5000   C.3       1 RES1  17.9606
   482 17.96    8.0000  -7.5000  22.0000   C.3       1 RES1  17.9606
   483 17.96    8.0000  -7.5000  22.5000   C.3       1 RES1  17.9606
   484 17.96    8.0000  -7.0000  21.5000   C.3       1 RES1  17.9606
   485 17.96    8.0000  -7.0000  22.0000   C.3       1 RES1  17.9606
   486 17.96    8.0000  -7.0000  22.5000   C.3       1 RES1  17.9606
   487 17.96    8.0000  -6.5000  21.5000   C.3       1 RES1  17.9606
   488 17.96    8.0000  -6.5000  22.0000   C.3       1 RES1  17.9606
   489 17.96    8.5000  -7.5000  23.0000   C.3       1 RES1  17.9606
   490 17.96    9.0000  -7.5000  23.0000   C.3       1 RES1  17.9606
   491 21.29   10.0000  -8.0000  20.0000   C.3       1 RES1  21.2854
   492 21.29   10.5000  -8.0000  20.0000   C.3       1 RES1  21.2854
   493 21.29   10.5000  -7.5000  20.0000   C.3       1 RES1  21.2854
   494 21.29   10.5000  -7.0000  20.0000   C.3       1 RES1  21.2854
   495 21.29   10.5000  -7.0000  20.5000   C.3       1 RES1  21.2854
   496 21.29   11.0000  -8.0000  20.0000   C.3       1 RES1  21.2854
   497 21.29   11.0000  -7.5000  20.0000   C.3       1 RES1  21.2854
   498 21.29   11.0000  -7.0000  20.0000   C.3       1 RES1  21.2854
   499 21.29   11.0000  -7.0000  20.5000   C.3       1 RES1  21.2854
   500 19.77    8.0000  -6.5000  22.5000   C.3       1 RES1  19.7748
   501 19.77    8.0000  -6.5000  23.0000   C.3       1 RES1  19.7748
   502 19.77    8.0000  -6.5000  23.5000   C.3       1 RES1  19.7748
   503 19.77    8.0000  -6.0000  22.5000   C.3       1 RES1  19.7748
   504 19.77    8.0000  -6.0000  23.0000   C.3       1 RES1  19.7748
   505 19.77    8.0000  -6.0000  23.5000   C.3       1 RES1  19.7748
   506 19.77    8.0000  -5.5000  22.5000   C.3       1 RES1  19.7748
   507 19.77    8.0000  -5.5000  23.0000   C.3       1 RES1  19.7748
   508 19.77    8.0000  -5.5000  23.5000   C.3       1 RES1  19.7748
   509 19.77    8.5000  -6.5000  23.0000   C.3       1 RES1  19.7748
   510 19.77    8.5000  -6.5000  23.5000   C.3       1 RES1  19.7748
   511 19.77    8.5000  -6.0000  22.5000   C.3       1 RES1  19.7748
   512 19.77    8.5000  -6.0000  23.0000   C.3       1 RES1  19.7748
   513 19.77    8.5000  -6.0000  23.5000   C.3       1 RES1  19.7748
   514 19.77    8.5000  -5.5000  22.5000   C.3       1 RES1  19.7748
   515 19.77    8.5000  -5.5000  23.0000   C.3       1 RES1  19.7748
   516 19.77    8.5000  -5.5000  23.5000   C.3       1 RES1  19.7748
   517 19.77    9.0000  -6.5000  23.0000   C.3       1 RES1  19.7748
   518 19.77    9.0000  -6.5000  23.5000   C.3       1 RES1  19.7748
   519 19.77    9.0000  -6.0000  23.0000   C.3       1 RES1  19.7748
   520 19.77    9.0000  -6.0000  23.5000   C.3       1 RES1  19.7748
   521 19.77    9.0000  -5.5000  23.0000   C.3       1 RES1  19.7748
   522 19.77    9.0000  -5.5000  23.5000   C.3       1 RES1  19.7748
   523 18.26    8.5000  -7.0000  23.0000   C.3       1 RES1  18.2568
   524 17.85   11.0000  -8.5000  23.0000   C.3       1 RES1  17.8521
   525 17.85   11.5000  -8.5000  23.0000   C.3       1 RES1  17.8521
   526 17.85   12.0000  -8.5000  23.0000   C.3       1 RES1  17.8521
   527 18.59   11.5000  -6.5000  20.0000   C.3       1 RES1  18.5929
   528 17.34   11.5000  -7.0000  23.5000   C.3       1 RES1  17.3430
   529 17.34   11.5000  -6.5000  23.5000   C.3       1 RES1  17.3430
   530 17.89   10.5000  -1.0000  17.5000   C.3       1 RES1  17.8919
   531 17.89   10.5000  -0.5000  17.5000   C.3       1 RES1  17.8919
   532 17.89   11.0000  -1.0000  17.5000   C.3       1 RES1  17.8919
   533 17.89   11.0000  -0.5000  17.5000   C.3       1 RES1  17.8919
   534 17.89   11.5000  -1.0000  17.5000   C.3       1 RES1  17.8919
   535 17.89   11.5000  -0.5000  17.5000   C.3       1 RES1  17.8919
   536 17.07   11.5000  -9.5000  17.0000   C.3       1 RES1  17.0703
   537 17.07   11.5000  -9.5000  17.5000   C.3       1 RES1  17.0703
   538 17.07   11.5000  -9.5000  18.0000   C.3       1 RES1  17.0703
   539 21.80   11.0000  -4.5000  15.0000   C.3       1 RES1  21.8003
   540 21.80   11.0000  -4.5000  15.5000   C.3       1 RES1  21.8003
   541 21.80   11.0000  -4.5000  16.0000   C.3       1 RES1  21.8003
   542 21.80   11.5000  -4.5000  15.0000   C.3       1 RES1  21.8003
   543 21.80   11.5000  -4.5000  15.5000   C.3       1 RES1  21.8003
   544 21.80   11.5000  -4.5000  16.0000   C.3       1 RES1  21.8003
   545 21.80   12.0000  -4.5000  15.0000   C.3       1 RES1  21.8003
   546 21.80   12.0000  -4.5000  15.5000   C.3       1 RES1  21.8003
   547 21.80   12.0000  -4.5000  16.0000   C.3       1 RES1  21.8003
   548 17.67    8.5000  -5.0000  22.0000   C.3       1 RES1  17.6731
   549 17.67    8.5000  -5.0000  22.5000   C.3       1 RES1  17.6731
   550 17.67    8.5000  -5.0000  23.0000   C.3       1 RES1  17.6731
   551 20.22    9.0000  -8.0000  19.5000   C.3       1 RES1  20.2231
   552 20.22    9.5000  -8.0000  19.5000   C.3       1 RES1  20.2231
   553 20.22   10.0000  -8.0000  19.5000   C.3       1 RES1  20.2231
   554 18.14   12.5000  -4.5000  16.0000   C.3       1 RES1  18.1372
   555 22.42   11.5000  -4.0000  16.5000   C.3       1 RES1  22.4165
   556 22.42   11.5000  -4.0000  17.0000   C.3       1 RES1  22.4165
   557 22.42   11.5000  -4.0000  17.5000   C.3       1 RES1  22.4165
   558 22.42   11.5000  -3.5000  16.5000   C.3       1 RES1  22.4165
   559 22.42   11.5000  -3.5000  17.0000   C.3       1 RES1  22.4165
   560 22.42   11.5000  -3.5000  17.5000   C.3       1 RES1  22.4165
   561 22.42   11.5000  -3.0000  17.5000   C.3       1 RES1  22.4165
   562 22.42   12.0000  -4.0000  16.5000   C.3       1 RES1  22.4165
   563 22.42   12.0000  -4.0000  17.0000   C.3       1 RES1  22.4165
   564 22.42   12.0000  -4.0000  17.5000   C.3       1 RES1  22.4165
   565 22.42   12.0000  -3.5000  16.5000   C.3       1 RES1  22.4165
   566 22.42   12.0000  -3.5000  17.0000   C.3       1 RES1  22.4165
   567 22.42   12.0000  -3.5000  17.5000   C.3       1 RES1  22.4165
   568 22.42   12.0000  -3.0000  16.5000   C.3       1 RES1  22.4165
   569 22.42   12.0000  -3.0000  17.0000   C.3       1 RES1  22.4165
   570 22.42   12.0000  -3.0000  17.5000   C.3       1 RES1  22.4165
   571 22.42   12.5000  -4.0000  16.5000   C.3       1 RES1  22.4165
   572 22.42   12.5000  -4.0000  17.0000   C.3       1 RES1  22.4165
   573 22.42   12.5000  -4.0000  17.5000   C.3       1 RES1  22.4165
   574 22.42   12.5000  -3.5000  16.5000   C.3       1 RES1  22.4165
   575 22.42   12.5000  -3.5000  17.0000   C.3       1 RES1  22.4165
   576 22.42   12.5000  -3.5000  17.5000   C.3       1 RES1  22.4165
   577 22.42   12.5000  -3.0000  16.5000   C.3       1 RES1  22.4165
   578 22.42   12.5000  -3.0000  17.0000   C.3       1 RES1  22.4165
   579 22.42   12.5000  -3.0000  17.5000   C.3       1 RES1  22.4165
   580 17.80   12.0000  -9.5000  23.0000   C.3       1 RES1  17.7977
   581 17.80   12.0000  -9.5000  23.5000   C.3       1 RES1  17.7977
   582 17.80   12.0000  -9.5000  24.0000   C.3       1 RES1  17.7977
   583 17.80   12.0000  -9.0000  23.0000   C.3       1 RES1  17.7977
   584 17.80   12.5000  -9.5000  23.0000   C.3       1 RES1  17.7977
   585 17.80   12.5000  -9.5000  23.5000   C.3       1 RES1  17.7977
   586 17.80   12.5000  -9.5000  24.0000   C.3       1 RES1  17.7977
   587 17.80   12.5000  -9.0000  23.0000   C.3       1 RES1  17.7977
   588 17.80   12.5000  -8.5000  23.0000   C.3       1 RES1  17.7977
   589 17.80   13.0000  -9.5000  23.0000   C.3       1 RES1  17.7977
   590 17.80   13.0000  -9.5000  23.5000   C.3       1 RES1  17.7977
   591 17.80   13.0000  -9.5000  24.0000   C.3       1 RES1  17.7977
   592 17.80   13.0000  -9.0000  23.0000   C.3       1 RES1  17.7977
   593 17.80   13.0000  -8.5000  23.0000   C.3       1 RES1  17.7977
   594 23.24   10.5000  -3.0000  16.0000   C.3       1 RES1  23.2450
   595 23.24   10.5000  -3.0000  16.5000   C.3       1 RES1  23.2450
   596 23.24   10.5000  -3.0000  17.0000   C.3       1 RES1  23.2450
   597 23.24   10.5000  -2.5000  16.0000   C.3       1 RES1  23.2450
   598 23.24   10.5000  -2.5000  16.5000   C.3       1 RES1  23.2450
   599 23.24   10.5000  -2.5000  17.0000   C.3       1 RES1  23.2450
   600 23.24   10.5000  -2.0000  16.0000   C.3       1 RES1  23.2450
   601 23.24   10.5000  -2.0000  16.5000   C.3       1 RES1  23.2450
   602 23.24   10.5000  -2.0000  17.0000   C.3       1 RES1  23.2450
   603 23.24   11.0000  -3.0000  16.0000   C.3       1 RES1  23.2450
   604 23.24   11.0000  -3.0000  16.5000   C.3       1 RES1  23.2450
   605 23.24   11.0000  -3.0000  17.0000   C.3       1 RES1  23.2450
   606 23.24   11.0000  -2.5000  16.0000   C.3       1 RES1  23.2450
   607 23.24   11.0000  -2.5000  16.5000   C.3       1 RES1  23.2450
   608 23.24   11.0000  -2.5000  17.0000   C.3       1 RES1  23.2450
   609 23.24   11.0000  -2.0000  16.0000   C.3       1 RES1  23.2450
   610 23.24   11.0000  -2.0000  16.5000   C.3       1 RES1  23.2450
   611 23.24   11.0000  -2.0000  17.0000   C.3       1 RES1  23.2450
   612 23.24   11.5000  -3.0000  16.0000   C.3       1 RES1  23.2450
   613 23.24   11.5000  -3.0000  16.5000   C.3       1 RES1  23.2450
   614 23.24   11.5000  -3.0000  17.0000   C.3       1 RES1  23.2450
   615 23.24   11.5000  -2.5000  16.0000   C.3       1 RES1  23.2450
   616 23.24   11.5000  -2.5000  16.5000   C.3       1 RES1  23.2450
   617 23.24   11.5000  -2.5000  17.0000   C.3       1 RES1  23.2450
   618 23.24   11.5000  -2.0000  16.0000   C.3       1 RES1  23.2450
   619 23.24   11.5000  -2.0000  16.5000   C.3       1 RES1  23.2450
   620 23.24   11.5000  -2.0000  17.0000   C.3       1 RES1  23.2450
   621 20.36    9.0000  -7.5000  19.5000   C.3       1 RES1  20.3578
   622 20.36    9.0000  -7.0000  19.5000   C.3       1 RES1  20.3578
   623 20.36    9.0000  -6.5000  19.5000   C.3       1 RES1  20.3578
   624 20.36    9.5000  -7.5000  19.5000   C.3       1 RES1  20.3578
   625 20.36    9.5000  -7.0000  19.5000   C.3       1 RES1  20.3578
   626 20.36    9.5000  -6.5000  19.5000   C.3       1 RES1  20.3578
   627 20.36   10.0000  -7.5000  19.5000   C.3       1 RES1  20.3578
   628 20.36   10.0000  -7.0000  19.5000   C.3       1 RES1  20.3578
   629 20.36   10.0000  -6.5000  19.5000   C.3       1 RES1  20.3578
   630 17.67   13.5000  -9.5000  22.5000   C.3       1 RES1  17.6695
   631 17.67   13.5000  -9.5000  23.0000   C.3       1 RES1  17.6695
   632 17.67   13.5000  -9.5000  23.5000   C.3       1 RES1  17.6695
   633 17.67   13.5000  -9.0000  22.5000   C.3       1 RES1  17.6695
   634 17.67   13.5000  -9.0000  23.0000   C.3       1 RES1  17.6695
   635 17.67   13.5000  -9.0000  23.5000   C.3       1 RES1  17.6695
   636 17.67   13.5000  -8.5000  22.5000   C.3       1 RES1  17.6695
   637 17.67   13.5000  -8.5000  23.0000   C.3       1 RES1  17.6695
   638 17.67   13.5000  -8.5000  23.5000   C.3       1 RES1  17.6695
   639 20.56    9.0000  -6.0000  21.5000   C.3       1 RES1  20.5627
   640 20.56    9.0000  -6.0000  22.0000   C.3       1 RES1  20.5627
   641 20.56    9.0000  -5.5000  21.0000   C.3       1 RES1  20.5627
   642 20.56    9.0000  -5.5000  21.5000   C.3       1 RES1  20.5627
   643 20.56    9.0000  -5.5000  22.0000   C.3       1 RES1  20.5627
   644 20.56    9.5000  -6.0000  21.5000   C.3       1 RES1  20.5627
   645 20.56    9.5000  -5.5000  21.0000   C.3       1 RES1  20.5627
   646 20.56    9.5000  -5.5000  21.5000   C.3       1 RES1  20.5627
   647 21.29   10.0000  -8.5000  20.5000   C.3       1 RES1  21.2859
   648 21.29   10.0000  -8.0000  20.5000   C.3       1 RES1  21.2859
   649 21.29   10.5000  -8.5000  20.5000   C.3       1 RES1  21.2859
   650 21.29   10.5000  -8.0000  20.5000   C.3       1 RES1  21.2859
   651 21.29   10.5000  -7.5000  20.5000   C.3       1 RES1  21.2859
   652 21.29   11.0000  -8.5000  20.5000   C.3       1 RES1  21.2859
   653 21.29   11.0000  -8.5000  21.0000   C.3       1 RES1  21.2859
   654 21.29   11.0000  -8.5000  21.5000   C.3       1 RES1  21.2859
   655 21.29   11.0000  -8.0000  20.5000   C.3       1 RES1  21.2859
   656 21.29   11.0000  -8.0000  21.0000   C.3       1 RES1  21.2859
   657 21.29   11.0000  -7.5000  20.5000   C.3       1 RES1  21.2859
   658 21.29   11.0000  -7.5000  21.0000   C.3       1 RES1  21.2859
   659 17.63   10.0000  -1.0000  16.5000   C.3       1 RES1  17.6258
   660 17.63   10.0000  -1.0000  17.0000   C.3       1 RES1  17.6258
   661 17.63   10.0000  -1.0000  17.5000   C.3       1 RES1  17.6258
   662 17.63   10.0000  -0.5000  16.5000   C.3       1 RES1  17.6258
   663 17.63   10.0000  -0.5000  17.0000   C.3       1 RES1  17.6258
   664 17.63   10.0000  -0.5000  17.5000   C.3       1 RES1  17.6258
   665 17.63   10.0000   0.0000  16.5000   C.3       1 RES1  17.6258
   666 17.63   10.0000   0.0000  17.0000   C.3       1 RES1  17.6258
   667 17.63   10.0000   0.0000  17.5000   C.3       1 RES1  17.6258
   668 21.47   10.5000  -8.0000  22.5000   C.3       1 RES1  21.4657
   669 21.47   11.0000  -8.0000  21.5000   C.3       1 RES1  21.4657
   670 21.47   11.0000  -8.0000  22.0000   C.3       1 RES1  21.4657
   671 21.47   11.0000  -8.0000  22.5000   C.3       1 RES1  21.4657
   672 21.47   11.0000  -7.5000  21.5000   C.3       1 RES1  21.4657
   673 21.47   11.5000  -8.0000  21.5000   C.3       1 RES1  21.4657
   674 21.47   11.5000  -8.0000  22.0000   C.3       1 RES1  21.4657
   675 21.47   11.5000  -8.0000  22.5000   C.3       1 RES1  21.4657
   676 21.47   11.5000  -7.5000  21.5000   C.3       1 RES1  21.4657
   677 21.47   11.5000  -7.5000  22.0000   C.3       1 RES1  21.4657
   678 21.47   11.5000  -7.5000  22.5000   C.3       1 RES1  21.4657
   679 21.47   11.5000  -7.0000  21.5000   C.3       1 RES1  21.4657
   680 21.47   11.5000  -7.0000  22.0000   C.3       1 RES1  21.4657
   681 21.47   11.5000  -7.0000  22.5000   C.3       1 RES1  21.4657
   682 17.04    9.0000  -9.0000  17.5000   C.3       1 RES1  17.0375
   683 17.04    9.0000  -8.5000  17.5000   C.3       1 RES1  17.0375
   684 17.04    9.0000  -8.0000  17.5000   C.3       1 RES1  17.0375
   685 17.32   13.5000  -9.0000  22.0000   C.3       1 RES1  17.3211
   686 17.32   13.5000  -8.5000  22.0000   C.3       1 RES1  17.3211
   687 17.32   13.5000  -8.0000  22.0000   C.3       1 RES1  17.3211
   688 19.39   12.0000  -7.0000  21.5000   C.3       1 RES1  19.3860
   689 19.39   12.0000  -7.0000  22.0000   C.3       1 RES1  19.3860
   690 19.39   12.0000  -7.0000  22.5000   C.3       1 RES1  19.3860
   691 18.63   10.0000  -6.0000  23.5000   C.3       1 RES1  18.6267
   692 18.63   10.0000  -5.5000  23.5000   C.3       1 RES1  18.6267
   693 19.13   11.0000  -9.0000  21.0000   C.3       1 RES1  19.1262
   694 19.13   11.0000  -9.0000  21.5000   C.3       1 RES1  19.1262
   695 19.13   11.0000  -9.0000  22.0000   C.3       1 RES1  19.1262
   696 19.13   11.5000  -9.0000  21.0000   C.3       1 RES1  19.1262
   697 19.13   11.5000  -9.0000  21.5000   C.3       1 RES1  19.1262
   698 19.13   11.5000  -9.0000  22.0000   C.3       1 RES1  19.1262
   699 19.13   12.0000  -9.0000  21.0000   C.3       1 RES1  19.1262
   700 19.13   12.0000  -9.0000  21.5000   C.3       1 RES1  19.1262
   701 19.13   12.0000  -9.0000  22.0000   C.3       1 RES1  19.1262
   702 18.98   11.0000  -7.0000  19.5000   C.3       1 RES1  18.9791
   703 17.03   13.0000  -4.5000  17.5000   C.3       1 RES1  17.0309
   704 19.87    8.5000  -6.0000  20.5000   C.3       1 RES1  19.8715
   705 19.87    8.5000  -5.5000  20.5000   C.3       1 RES1  19.8715
   706 19.87    9.0000  -5.5000  20.5000   C.3       1 RES1  19.8715
   707 19.87    9.5000  -5.5000  20.5000   C.3       1 RES1  19.8715
   708 17.77   11.0000  -7.5000  16.0000   C.3       1 RES1  17.7704
   709 17.77   11.0000  -7.5000  16.5000   C.3       1 RES1  17.7704
   710 17.77   11.5000  -7.5000  16.0000   C.3       1 RES1  17.7704
   711 17.77   11.5000  -7.5000  16.5000   C.3       1 RES1  17.7704
   712 17.77   11.5000  -7.5000  17.0000   C.3       1 RES1  17.7704
   713 20.03   10.5000  -2.5000  17.5000   C.3       1 RES1  20.0332
   714 20.03   10.5000  -2.0000  17.5000   C.3       1 RES1  20.0332
   715 20.03   10.5000  -1.5000  16.5000   C.3       1 RES1  20.0332
   716 20.03   10.5000  -1.5000  17.0000   C.3       1 RES1  20.0332
   717 20.03   10.5000  -1.5000  17.5000   C.3       1 RES1  20.0332
   718 20.03   11.0000  -2.5000  17.5000   C.3       1 RES1  20.0332
   719 20.03   11.0000  -2.0000  17.5000   C.3       1 RES1  20.0332
   720 20.03   11.0000  -1.5000  17.0000   C.3       1 RES1  20.0332
   721 20.03   11.0000  -1.5000  17.5000   C.3       1 RES1  20.0332
   722 20.03   11.5000  -2.5000  17.5000   C.3       1 RES1  20.0332
   723 20.03   11.5000  -2.0000  17.5000   C.3       1 RES1  20.0332
   724 20.03   11.5000  -1.5000  17.0000   C.3       1 RES1  20.0332
   725 20.03   11.5000  -1.5000  17.5000   C.3       1 RES1  20.0332
   726 17.81   10.0000  -7.0000  17.5000   C.3       1 RES1  17.8137
   727 17.81   10.0000  -6.5000  17.5000   C.3       1 RES1  17.8137
   728 17.81   10.5000  -7.0000  17.5000   C.3       1 RES1  17.8137
   729 17.81   10.5000  -6.5000  17.5000   C.3       1 RES1  17.8137
   730 17.81   11.0000  -7.0000  17.5000   C.3       1 RES1  17.8137
   731 17.81   11.0000  -6.5000  17.5000   C.3       1 RES1  17.8137
   732 17.33   11.0000  -9.0000  20.5000   C.3       1 RES1  17.3276
   733 20.25   10.5000  -8.0000  23.0000   C.3       1 RES1  20.2482
   734 20.25   11.0000  -8.0000  23.0000   C.3       1 RES1  20.2482
   735 20.25   11.5000  -8.0000  23.0000   C.3       1 RES1  20.2482
   736 20.25   11.5000  -7.5000  23.0000   C.3       1 RES1  20.2482
   737 20.25   11.5000  -7.0000  23.0000   C.3       1 RES1  20.2482
   738 17.76   11.5000  -7.0000  17.5000   C.3       1 RES1  17.7590
   739 17.76   11.5000  -6.5000  17.5000   C.3       1 RES1  17.7590
   740 20.61   11.0000  -8.5000  22.0000   C.3       1 RES1  20.6080
   741 20.61   11.5000  -8.5000  21.0000   C.3       1 RES1  20.6080
   742 20.61   11.5000  -8.5000  21.5000   C.3       1 RES1  20.6080
   743 20.61   11.5000  -8.5000  22.0000   C.3       1 RES1  20.6080
   744 20.61   11.5000  -8.0000  21.0000   C.3       1 RES1  20.6080
   745 17.15   10.0000 -10.0000  17.0000   C.3       1 RES1  17.1528
   746 17.15   10.0000 -10.0000  17.5000   C.3       1 RES1  17.1528
   747 17.15   10.0000 -10.0000  18.0000   C.3       1 RES1  17.1528
   748 17.15   10.5000 -10.0000  17.0000   C.3       1 RES1  17.1528
   749 17.15   10.5000 -10.0000  17.5000   C.3       1 RES1  17.1528
   750 17.15   10.5000 -10.0000  18.0000   C.3       1 RES1  17.1528
   751 17.15   11.0000 -10.0000  17.0000   C.3       1 RES1  17.1528
   752 17.15   11.0000 -10.0000  17.5000   C.3       1 RES1  17.1528
   753 17.15   11.0000 -10.0000  18.0000   C.3       1 RES1  17.1528
   754 17.18   10.0000  -9.5000  17.0000   C.3       1 RES1  17.1771
   755 17.18   10.0000  -9.5000  17.5000   C.3       1 RES1  17.1771
   756 17.18   10.0000  -9.5000  18.0000   C.3       1 RES1  17.1771
   757 17.18   10.0000  -9.0000  17.0000   C.3       1 RES1  17.1771
   758 17.18   10.0000  -9.0000  17.5000   C.3       1 RES1  17.1771
   759 17.18   10.0000  -9.0000  18.0000   C.3       1 RES1  17.1771
   760 17.18   10.5000  -9.5000  17.0000   C.3       1 RES1  17.1771
   761 17.18   10.5000  -9.5000  17.5000   C.3       1 RES1  17.1771
   762 17.18   10.5000  -9.5000  18.0000   C.3       1 RES1  17.1771
   763 17.18   11.0000  -9.5000  17.0000   C.3       1 RES1  17.1771
   764 17.18   11.0000  -9.5000  17.5000   C.3       1 RES1  17.1771
   765 17.18   11.0000  -9.5000  18.0000   C.3       1 RES1  17.1771
   766 17.57    9.0000  -8.0000  17.0000   C.3       1 RES1  17.5661
   767 17.57    9.0000  -7.5000  17.0000   C.3       1 RES1  17.5661
   768 17.57    9.0000  -7.0000  16.0000   C.3       1 RES1  17.5661
   769 17.57    9.0000  -7.0000  16.5000   C.3       1 RES1  17.5661
   770 17.57    9.0000  -7.0000  17.0000   C.3       1 RES1  17.5661
   771 17.57    9.5000  -8.0000  17.0000   C.3       1 RES1  17.5661
   772 17.57    9.5000  -7.5000  17.0000   C.3       1 RES1  17.5661
   773 17.57    9.5000  -7.0000  16.0000   C.3       1 RES1  17.5661
   774 17.57    9.5000  -7.0000  16.5000   C.3       1 RES1  17.5661
   775 17.57    9.5000  -7.0000  17.0000   C.3       1 RES1  17.5661
   776 17.25   13.5000  -6.5000  22.5000   C.3       1 RES1  17.2548
   777 17.25   13.5000  -6.5000  23.0000   C.3       1 RES1  17.2548
   778 17.25   13.5000  -6.5000  23.5000   C.3       1 RES1  17.2548
   779 19.11   10.5000  -9.5000  22.0000   C.3       1 RES1  19.1100
   780 19.11   10.5000  -9.5000  22.5000   C.3       1 RES1  19.1100
   781 19.11   10.5000  -9.0000  22.5000   C.3       1 RES1  19.1100
   782 19.11   11.0000  -9.5000  21.5000   C.3       1 RES1  19.1100
   783 19.11   11.0000  -9.5000  22.0000   C.3       1 RES1  19.1100
   784 19.11   11.0000  -9.5000  22.5000   C.3       1 RES1  19.1100
   785 19.11   11.5000  -9.5000  21.5000   C.3       1 RES1  19.1100
   786 19.11   11.5000  -9.5000  22.0000   C.3       1 RES1  19.1100
   787 19.11   11.5000  -9.5000  22.5000   C.3       1 RES1  19.1100
   788 17.89   12.5000  -2.5000  15.0000   C.3       1 RES1  17.8866
   789 17.89   12.5000  -2.5000  15.5000   C.3       1 RES1  17.8866
   790 17.89   12.5000  -2.5000  16.0000   C.3       1 RES1  17.8866
   791 17.89   12.5000  -2.0000  15.0000   C.3       1 RES1  17.8866
   792 17.89   12.5000  -2.0000  15.5000   C.3       1 RES1  17.8866
   793 17.89   12.5000  -2.0000  16.0000   C.3       1 RES1  17.8866
   794 17.36   12.0000  -6.0000  23.5000   C.3       1 RES1  17.3553
   795 17.36   12.5000  -6.0000  23.0000   C.3       1 RES1  17.3553
   796 17.36   12.5000  -6.0000  23.5000   C.3       1 RES1  17.3553
   797 17.36   13.0000  -6.0000  22.5000   C.3       1 RES1  17.3553
   798 17.36   13.0000  -6.0000  23.0000   C.3       1 RES1  17.3553
   799 17.36   13.0000  -6.0000  23.5000   C.3       1 RES1  17.3553
   800 18.13   12.0000  -4.0000  18.5000   C.3       1 RES1  18.1300
   801 18.13   12.0000  -4.0000  19.0000   C.3       1 RES1  18.1300
   802 18.13   12.0000  -4.0000  19.5000   C.3       1 RES1  18.1300
   803 18.13   12.0000  -3.5000  18.5000   C.3       1 RES1  18.1300
   804 18.13   12.0000  -3.5000  19.0000   C.3       1 RES1  18.1300
   805 18.13   12.0000  -3.5000  19.5000   C.3       1 RES1  18.1300
   806 18.13   12.0000  -3.0000  18.5000   C.3       1 RES1  18.1300
   807 18.13   12.0000  -3.0000  19.0000   C.3       1 RES1  18.1300
   808 18.13   12.0000  -3.0000  19.5000   C.3       1 RES1  18.1300
   809 18.13   12.5000  -4.0000  18.5000   C.3       1 RES1  18.1300
   810 18.13   12.5000  -4.0000  19.0000   C.3       1 RES1  18.1300
   811 18.13   12.5000  -4.0000  19.5000   C.3       1 RES1  18.1300
   812 18.13   12.5000  -3.5000  18.5000   C.3       1 RES1  18.1300
   813 18.13   12.5000  -3.5000  19.0000   C.3       1 RES1  18.1300
   814 18.13   12.5000  -3.5000  19.5000   C.3       1 RES1  18.1300
   815 18.13   12.5000  -3.0000  18.5000   C.3       1 RES1  18.1300
   816 18.13   12.5000  -3.0000  19.0000   C.3       1 RES1  18.1300
   817 18.13   12.5000  -3.0000  19.5000   C.3       1 RES1  18.1300
   818 18.13   13.0000  -4.0000  18.5000   C.3       1 RES1  18.1300
   819 18.13   13.0000  -4.0000  19.0000   C.3       1 RES1  18.1300
   820 18.13   13.0000  -4.0000  19.5000   C.3       1 RES1  18.1300
   821 18.13   13.0000  -3.5000  19.0000   C.3       1 RES1  18.1300
   822 18.13   13.0000  -3.5000  19.5000   C.3       1 RES1  18.1300
   823 18.13   13.0000  -3.0000  19.0000   C.3       1 RES1  18.1300
   824 18.13   13.0000  -3.0000  19.5000   C.3       1 RES1  18.1300
   825 17.06   10.5000  -4.5000  19.0000   C.3       1 RES1  17.0613
   826 17.06   10.5000  -4.5000  19.5000   C.3       1 RES1  17.0613
   827 17.06   10.5000  -4.5000  20.0000   C.3       1 RES1  17.0613
   828 17.06   11.0000  -4.5000  19.0000   C.3       1 RES1  17.0613
   829 17.06   11.0000  -4.5000  19.5000   C.3       1 RES1  17.0613
   830 17.06   11.0000  -4.5000  20.0000   C.3       1 RES1  17.0613
   831 17.06   11.5000  -4.5000  19.0000   C.3       1 RES1  17.0613
   832 17.06   11.5000  -4.5000  19.5000   C.3       1 RES1  17.0613
   833 17.06   11.5000  -4.5000  20.0000   C.3       1 RES1  17.0613
   834 18.83   11.0000  -1.0000  15.0000   C.3       1 RES1  18.8345
   835 18.83   11.5000  -1.0000  15.0000   C.3       1 RES1  18.8345
   836 18.83   12.0000  -1.5000  15.0000   C.3       1 RES1  18.8345
   837 18.83   12.0000  -1.0000  15.0000   C.3       1 RES1  18.8345
   838 17.75   12.5000  -7.5000  21.5000   C.3       1 RES1  17.7506
   839 17.86   10.0000  -8.5000  17.0000   C.3       1 RES1  17.8613
   840 17.86   10.0000  -8.5000  17.5000   C.3       1 RES1  17.8613
   841 17.86   10.0000  -8.5000  18.0000   C.3       1 RES1  17.8613
   842 17.86   10.0000  -8.0000  17.0000   C.3       1 RES1  17.8613
   843 17.86   10.0000  -8.0000  17.5000   C.3       1 RES1  17.8613
   844 17.86   10.0000  -8.0000  18.0000   C.3       1 RES1  17.8613
   845 17.86   10.0000  -7.5000  17.0000   C.3       1 RES1  17.8613
   846 17.86   10.0000  -7.5000  17.5000   C.3       1 RES1  17.8613
   847 17.86   10.5000  -7.5000  17.0000   C.3       1 RES1  17.8613
   848 17.86   10.5000  -7.5000  17.5000   C.3       1 RES1  17.8613
   849 17.86   11.0000  -7.5000  17.0000   C.3       1 RES1  17.8613
   850 17.86   11.0000  -7.5000  17.5000   C.3       1 RES1  17.8613
   851 17.28   13.0000  -9.5000  22.0000   C.3       1 RES1  17.2752
   852 17.28   13.5000  -9.5000  22.0000   C.3       1 RES1  17.2752
   853 17.28   14.0000  -9.5000  22.0000   C.3       1 RES1  17.2752
   854 17.28   14.0000  -9.0000  22.0000   C.3       1 RES1  17.2752
   855 17.28   14.0000  -8.5000  22.0000   C.3       1 RES1  17.2752
   856 17.76   12.5000  -9.5000  22.5000   C.3       1 RES1  17.7604
   857 17.76   13.0000  -9.5000  22.5000   C.3       1 RES1  17.7604
   858 18.37   12.0000  -3.0000  14.5000   C.3       1 RES1  18.3665
   859 18.37   12.0000  -2.5000  14.5000   C.3       1 RES1  18.3665
   860 18.37   12.0000  -2.0000  14.5000   C.3       1 RES1  18.3665
   861 17.17   10.0000  -1.5000  16.0000   C.3       1 RES1  17.1689
   862 17.17   10.0000  -1.5000  16.5000   C.3       1 RES1  17.1689
   863 17.17   10.0000  -1.5000  17.0000   C.3       1 RES1  17.1689
   864 17.17   10.0000  -1.0000  16.0000   C.3       1 RES1  17.1689
   865 17.17   10.0000  -0.5000  16.0000   C.3       1 RES1  17.1689
   866 19.31   11.5000  -6.0000  22.5000   C.3       1 RES1  19.3131
   867 20.24    8.5000  -7.5000  19.5000   C.3       1 RES1  20.2449
   868 20.24    8.5000  -7.0000  19.5000   C.3       1 RES1  20.2449
   869 20.24    8.5000  -6.5000  19.5000   C.3       1 RES1  20.2449
   870 17.57   11.5000  -9.0000  15.5000   C.3       1 RES1  17.5666
   871 21.21   10.0000  -8.5000  20.0000   C.3       1 RES1  21.2080
   872 21.21   10.5000  -8.5000  20.0000   C.3       1 RES1  21.2080
   873 21.21   11.0000  -8.5000  20.0000   C.3       1 RES1  21.2080
   874 17.64    8.5000  -8.0000  20.0000   C.3       1 RES1  17.6418
   875 22.63   11.0000  -3.0000  15.0000   C.3       1 RES1  22.6298
   876 22.63   11.0000  -3.0000  15.5000   C.3       1 RES1  22.6298
   877 22.63   11.0000  -2.5000  15.0000   C.3       1 RES1  22.6298
   878 22.63   11.0000  -2.5000  15.5000   C.3       1 RES1  22.6298
   879 22.63   11.0000  -2.0000  15.0000   C.3       1 RES1  22.6298
   880 22.63   11.0000  -2.0000  15.5000   C.3       1 RES1  22.6298
   881 22.63   11.5000  -3.0000  15.0000   C.3       1 RES1  22.6298
   882 22.63   11.5000  -3.0000  15.5000   C.3       1 RES1  22.6298
   883 22.63   11.5000  -2.5000  15.0000   C.3       1 RES1  22.6298
   884 22.63   11.5000  -2.5000  15.5000   C.3       1 RES1  22.6298
   885 22.63   11.5000  -2.0000  15.0000   C.3       1 RES1  22.6298
   886 22.63   11.5000  -2.0000  15.5000   C.3       1 RES1  22.6298
   887 22.63   12.0000  -3.0000  15.0000   C.3       1 RES1  22.6298
   888 22.63   12.0000  -3.0000  15.5000   C.3       1 RES1  22.6298
   889 22.63   12.0000  -3.0000  16.0000   C.3       1 RES1  22.6298
   890 22.63   12.0000  -2.5000  15.0000   C.3       1 RES1  22.6298
   891 22.63   12.0000  -2.5000  15.5000   C.3       1 RES1  22.6298
   892 22.63   12.0000  -2.5000  16.0000   C.3       1 RES1  22.6298
   893 22.63   12.0000  -2.0000  15.0000   C.3       1 RES1  22.6298
   894 22.63   12.0000  -2.0000  15.5000   C.3       1 RES1  22.6298
   895 22.63   12.0000  -2.0000  16.0000   C.3       1 RES1  22.6298
   896 18.77    7.5000   0.0000  17.0000   C.3       1 RES1  18.7717
   897 18.77    7.5000   0.0000  17.5000   C.3       1 RES1  18.7717
   898 18.77    7.5000   0.0000  18.0000   C.3       1 RES1  18.7717
   899 17.86   10.5000  -5.5000  18.5000   C.3       1 RES1  17.8568
   900 17.86   10.5000  -5.0000  18.5000   C.3       1 RES1  17.8568
   901 17.86   10.5000  -5.0000  19.0000   C.3       1 RES1  17.8568
   902 17.86   11.0000  -5.5000  18.5000   C.3       1 RES1  17.8568
   903 17.86   11.0000  -5.0000  18.5000   C.3       1 RES1  17.8568
   904 17.86   11.0000  -5.0000  19.0000   C.3       1 RES1  17.8568
   905 17.86   11.5000  -6.0000  18.5000   C.3       1 RES1  17.8568
   906 17.86   11.5000  -5.5000  18.5000   C.3       1 RES1  17.8568
   907 17.86   11.5000  -5.5000  19.0000   C.3       1 RES1  17.8568
   908 17.86   11.5000  -5.0000  18.5000   C.3       1 RES1  17.8568
   909 17.86   11.5000  -5.0000  19.0000   C.3       1 RES1  17.8568
   910 17.86   11.5000  -5.0000  19.5000   C.3       1 RES1  17.8568
   911 18.34    9.0000  -5.0000  23.0000   C.3       1 RES1  18.3386
   912 18.34    9.5000  -5.0000  23.0000   C.3       1 RES1  18.3386
   913 18.34   10.0000  -5.0000  23.0000   C.3       1 RES1  18.3386
   914 17.89   12.0000  -8.0000  23.0000   C.3       1 RES1  17.8871
   915 17.89   12.0000  -7.5000  23.0000   C.3       1 RES1  17.8871
   916 17.89   12.0000  -7.0000  23.0000   C.3       1 RES1  17.8871
   917 17.89   12.5000  -8.0000  22.0000   C.3       1 RES1  17.8871
   918 17.89   12.5000  -8.0000  22.5000   C.3       1 RES1  17.8871
   919 17.89   12.5000  -8.0000  23.0000   C.3       1 RES1  17.8871
   920 17.89   12.5000  -7.5000  22.0000   C.3       1 RES1  17.8871
   921 17.89   12.5000  -7.5000  22.5000   C.3       1 RES1  17.8871
   922 17.89   12.5000  -7.5000  23.0000   C.3       1 RES1  17.8871
   923 17.89   12.5000  -7.0000  22.0000   C.3       1 RES1  17.8871
   924 17.89   12.5000  -7.0000  22.5000   C.3       1 RES1  17.8871
   925 17.89   12.5000  -7.0000  23.0000   C.3       1 RES1  17.8871
   926 17.83   10.5000  -7.0000  16.0000   C.3       1 RES1  17.8297
   927 17.83   10.5000  -7.0000  16.5000   C.3       1 RES1  17.8297
   928 17.83   10.5000  -7.0000  17.0000   C.3       1 RES1  17.8297
   929 17.83   10.5000  -6.5000  16.0000   C.3       1 RES1  17.8297
   930 17.83   10.5000  -6.5000  16.5000   C.3       1 RES1  17.8297
   931 17.83   10.5000  -6.5000  17.0000   C.3       1 RES1  17.8297
   932 17.83   10.5000  -6.0000  16.0000   C.3       1 RES1  17.8297
   933 17.83   10.5000  -6.0000  16.5000   C.3       1 RES1  17.8297
   934 17.83   10.5000  -6.0000  17.0000   C.3       1 RES1  17.8297
   935 17.83   11.0000  -7.0000  16.0000   C.3       1 RES1  17.8297
   936 17.83   11.0000  -7.0000  16.5000   C.3       1 RES1  17.8297
   937 17.83   11.0000  -7.0000  17.0000   C.3       1 RES1  17.8297
   938 17.83   11.0000  -6.5000  16.0000   C.3       1 RES1  17.8297
   939 17.83   11.0000  -6.5000  16.5000   C.3       1 RES1  17.8297
   940 17.83   11.0000  -6.5000  17.0000   C.3       1 RES1  17.8297
   941 17.83   11.0000  -6.0000  16.0000   C.3       1 RES1  17.8297
   942 17.83   11.0000  -6.0000  16.5000   C.3       1 RES1  17.8297
   943 17.83   11.0000  -6.0000  17.0000   C.3       1 RES1  17.8297
   944 17.83   11.5000  -7.0000  16.0000   C.3       1 RES1  17.8297
   945 17.83   11.5000  -7.0000  16.5000   C.3       1 RES1  17.8297
   946 17.83   11.5000  -7.0000  17.0000   C.3       1 RES1  17.8297
   947 17.83   11.5000  -6.5000  16.0000   C.3       1 RES1  17.8297
   948 17.83   11.5000  -6.5000  16.5000   C.3       1 RES1  17.8297
   949 17.83   11.5000  -6.5000  17.0000   C.3       1 RES1  17.8297
   950 17.83   11.5000  -6.0000  16.0000   C.3       1 RES1  17.8297
   951 17.83   11.5000  -6.0000  16.5000   C.3       1 RES1  17.8297
   952 17.83   11.5000  -6.0000  17.0000   C.3       1 RES1  17.8297
   953 17.57   13.5000  -9.5000  24.0000   C.3       1 RES1  17.5674
   954 17.57   13.5000  -9.0000  24.0000   C.3       1 RES1  17.5674
   955 17.57   13.5000  -8.5000  24.0000   C.3       1 RES1  17.5674
   956 17.26    9.0000  -8.5000  18.0000   C.3       1 RES1  17.2569
   957 17.26    9.0000  -8.0000  18.0000   C.3       1 RES1  17.2569
   958 17.26    9.0000  -7.5000  18.0000   C.3       1 RES1  17.2569
   959 17.26    9.5000  -8.5000  18.0000   C.3       1 RES1  17.2569
   960 17.26    9.5000  -8.0000  18.0000   C.3       1 RES1  17.2569
   961 20.40   11.0000  -1.5000  15.5000   C.3       1 RES1  20.3993
   962 20.40   11.0000  -1.5000  16.0000   C.3       1 RES1  20.3993
   963 20.40   11.0000  -1.5000  16.5000   C.3       1 RES1  20.3993
   964 20.40   11.0000  -1.0000  15.5000   C.3       1 RES1  20.3993
   965 20.40   11.0000  -1.0000  16.0000   C.3       1 RES1  20.3993
   966 20.40   11.0000  -1.0000  16.5000   C.3       1 RES1  20.3993
   967 20.40   11.0000  -0.5000  15.5000   C.3       1 RES1  20.3993
   968 20.40   11.0000  -0.5000  16.0000   C.3       1 RES1  20.3993
   969 20.40   11.0000  -0.5000  16.5000   C.3       1 RES1  20.3993
   970 20.40   11.5000  -1.5000  15.5000   C.3       1 RES1  20.3993
   971 20.40   11.5000  -1.5000  16.0000   C.3       1 RES1  20.3993
   972 20.40   11.5000  -1.5000  16.5000   C.3       1 RES1  20.3993
   973 20.40   11.5000  -1.0000  15.5000   C.3       1 RES1  20.3993
   974 20.40   11.5000  -1.0000  16.0000   C.3       1 RES1  20.3993
   975 20.40   11.5000  -1.0000  16.5000   C.3       1 RES1  20.3993
   976 20.40   11.5000  -0.5000  15.5000   C.3       1 RES1  20.3993
   977 20.40   11.5000  -0.5000  16.0000   C.3       1 RES1  20.3993
   978 20.40   11.5000  -0.5000  16.5000   C.3       1 RES1  20.3993
   979 20.40   12.0000  -1.5000  15.5000   C.3       1 RES1  20.3993
   980 20.40   12.0000  -1.5000  16.0000   C.3       1 RES1  20.3993
   981 20.40   12.0000  -1.5000  16.5000   C.3       1 RES1  20.3993
   982 20.40   12.0000  -1.0000  15.5000   C.3       1 RES1  20.3993
   983 20.40   12.0000  -1.0000  16.0000   C.3       1 RES1  20.3993
   984 20.40   12.0000  -1.0000  16.5000   C.3       1 RES1  20.3993
   985 20.40   12.0000  -0.5000  15.5000   C.3       1 RES1  20.3993
   986 20.40   12.0000  -0.5000  16.0000   C.3       1 RES1  20.3993
   987 20.40   12.0000  -0.5000  16.5000   C.3       1 RES1  20.3993
   988 17.88   12.0000  -6.5000  23.0000   C.3       1 RES1  17.8830
   989 17.88   12.5000  -6.5000  22.0000   C.3       1 RES1  17.8830
   990 17.88   12.5000  -6.5000  22.5000   C.3       1 RES1  17.8830
   991 17.88   12.5000  -6.5000  23.0000   C.3       1 RES1  17.8830
   992 17.24    9.0000  -7.0000  15.5000   C.3       1 RES1  17.2373
   993 20.64    9.5000  -6.5000  23.0000   C.3       1 RES1  20.6431
   994 20.64    9.5000  -6.0000  22.0000   C.3       1 RES1  20.6431
   995 20.64    9.5000  -6.0000  22.5000   C.3       1 RES1  20.6431
   996 20.64    9.5000  -6.0000  23.0000   C.3       1 RES1  20.6431
   997 20.64    9.5000  -5.5000  22.0000   C.3       1 RES1  20.6431
   998 20.64    9.5000  -5.5000  22.5000   C.3       1 RES1  20.6431
   999 20.64    9.5000  -5.5000  23.0000   C.3       1 RES1  20.6431
  1000 20.64   10.0000  -5.5000  22.0000   C.3       1 RES1  20.6431
  1001 20.64   10.0000  -5.5000  22.5000   C.3       1 RES1  20.6431
  1002 20.64   10.0000  -5.5000  23.0000   C.3       1 RES1  20.6431
  1003 20.64   10.5000  -5.5000  22.0000   C.3       1 RES1  20.6431
  1004 20.64   10.5000  -5.5000  22.5000   C.3       1 RES1  20.6431
  1005 20.64   10.5000  -5.5000  23.0000   C.3       1 RES1  20.6431
  1006 18.02   12.5000  -4.0000  15.0000   C.3       1 RES1  18.0222
  1007 18.02   12.5000  -4.0000  15.5000   C.3       1 RES1  18.0222
  1008 18.02   12.5000  -3.5000  15.0000   C.3       1 RES1  18.0222
  1009 18.02   12.5000  -3.5000  15.5000   C.3       1 RES1  18.0222
  1010 18.02   12.5000  -3.0000  15.0000   C.3       1 RES1  18.0222
  1011 18.02   12.5000  -3.0000  15.5000   C.3       1 RES1  18.0222
  1012 19.12   13.0000  -4.0000  16.0000   C.3       1 RES1  19.1197
  1013 19.12   13.0000  -4.0000  16.5000   C.3       1 RES1  19.1197
  1014 19.12   13.0000  -4.0000  17.0000   C.3       1 RES1  19.1197
  1015 19.12   13.0000  -3.5000  16.0000   C.3       1 RES1  19.1197
  1016 19.12   13.0000  -3.5000  16.5000   C.3       1 RES1  19.1197
  1017 19.12   13.0000  -3.5000  17.0000   C.3       1 RES1  19.1197
  1018 19.12   13.0000  -3.0000  16.0000   C.3       1 RES1  19.1197
  1019 19.12   13.0000  -3.0000  16.5000   C.3       1 RES1  19.1197
  1020 19.12   13.0000  -3.0000  17.0000   C.3       1 RES1  19.1197
  1021 17.71   12.5000  -7.0000  23.5000   C.3       1 RES1  17.7110
  1022 17.43   11.5000  -5.0000  20.5000   C.3       1 RES1  17.4297
  1023 19.90    8.5000  -6.0000  21.0000   C.3       1 RES1  19.9000
  1024 19.90    8.5000  -6.0000  21.5000   C.3       1 RES1  19.9000
  1025 19.90    8.5000  -6.0000  22.0000   C.3       1 RES1  19.9000
  1026 19.90    8.5000  -5.5000  21.0000   C.3       1 RES1  19.9000
  1027 19.90    8.5000  -5.5000  21.5000   C.3       1 RES1  19.9000
  1028 19.90    8.5000  -5.5000  22.0000   C.3       1 RES1  19.9000
  1029 17.43    9.0000  -9.0000  21.0000   C.3       1 RES1  17.4251
  1030 17.43    9.0000  -9.0000  21.5000   C.3       1 RES1  17.4251
  1031 17.43    9.0000  -9.0000  22.0000   C.3       1 RES1  17.4251
  1032 18.81   11.0000  -4.0000  16.5000   C.3       1 RES1  18.8078
  1033 18.81   11.0000  -3.5000  16.5000   C.3       1 RES1  18.8078
  1034 19.96    9.5000  -7.0000  23.0000   C.3       1 RES1  19.9610
  1035 17.34   12.0000  -5.5000  23.0000   C.3       1 RES1  17.3432
  1036 20.74    9.0000  -6.0000  20.0000   C.3       1 RES1  20.7428
  1037 20.74    9.0000  -6.0000  20.5000   C.3       1 RES1  20.7428
  1038 20.74    9.0000  -6.0000  21.0000   C.3       1 RES1  20.7428
  1039 20.74    9.5000  -6.0000  20.0000   C.3       1 RES1  20.7428
  1040 20.74    9.5000  -6.0000  20.5000   C.3       1 RES1  20.7428
  1041 20.74    9.5000  -6.0000  21.0000   C.3       1 RES1  20.7428
  1042 20.74   10.0000  -6.0000  20.0000   C.3       1 RES1  20.7428
  1043 17.26   11.5000  -5.0000  22.5000   C.3       1 RES1  17.2594
  1044 17.26   12.0000  -5.0000  22.5000   C.3       1 RES1  17.2594
  1045 17.26   12.5000  -5.0000  21.5000   C.3       1 RES1  17.2594
  1046 17.26   12.5000  -5.0000  22.0000   C.3       1 RES1  17.2594
  1047 17.26   12.5000  -5.0000  22.5000   C.3       1 RES1  17.2594
  1048 20.76   10.0000  -5.5000  20.5000   C.3       1 RES1  20.7555
  1049 20.76   10.0000  -5.5000  21.0000   C.3       1 RES1  20.7555
  1050 20.76   10.0000  -5.5000  21.5000   C.3       1 RES1  20.7555
  1051 20.76   10.5000  -5.5000  20.5000   C.3       1 RES1  20.7555
  1052 20.76   10.5000  -5.5000  21.0000   C.3       1 RES1  20.7555
  1053 20.76   10.5000  -5.5000  21.5000   C.3       1 RES1  20.7555
  1054 20.76   11.0000  -5.5000  20.5000   C.3       1 RES1  20.7555
  1055 20.76   11.0000  -5.5000  21.0000   C.3       1 RES1  20.7555
  1056 20.76   11.0000  -5.5000  21.5000   C.3       1 RES1  20.7555
  1057 17.96   11.0000  -4.0000  17.0000   C.3       1 RES1  17.9610
  1058 17.96   11.0000  -4.0000  17.5000   C.3       1 RES1  17.9610
  1059 17.96   11.0000  -3.5000  17.0000   C.3       1 RES1  17.9610
  1060 17.96   11.0000  -3.5000  17.5000   C.3       1 RES1  17.9610
  1061 17.96   11.0000  -3.0000  17.5000   C.3       1 RES1  17.9610
  1062 17.78   10.5000  -9.0000  19.5000   C.3       1 RES1  17.7791
  1063 17.80   10.0000  -7.0000  17.0000   C.3       1 RES1  17.8019
  1064 17.80   10.0000  -6.5000  17.0000   C.3       1 RES1  17.8019
  1065 18.70   13.0000  -3.5000  17.5000   C.3       1 RES1  18.6981
  1066 18.70   13.0000  -3.5000  18.0000   C.3       1 RES1  18.6981
  1067 18.70   13.0000  -3.5000  18.5000   C.3       1 RES1  18.6981
  1068 18.70   13.0000  -3.0000  17.5000   C.3       1 RES1  18.6981
  1069 18.70   13.0000  -3.0000  18.0000   C.3       1 RES1  18.6981
  1070 18.70   13.0000  -3.0000  18.5000   C.3       1 RES1  18.6981
  1071 18.70   13.0000  -2.5000  17.5000   C.3       1 RES1  18.6981
  1072 18.70   13.0000  -2.5000  18.0000   C.3       1 RES1  18.6981
  1073 18.70   13.0000  -2.5000  18.5000   C.3       1 RES1  18.6981
  1074 18.70   13.5000  -3.5000  17.5000   C.3       1 RES1  18.6981
  1075 18.70   13.5000  -3.5000  18.0000   C.3       1 RES1  18.6981
  1076 18.70   13.5000  -3.5000  18.5000   C.3       1 RES1  18.6981
  1077 18.70   13.5000  -3.0000  17.5000   C.3       1 RES1  18.6981
  1078 18.70   13.5000  -3.0000  18.0000   C.3       1 RES1  18.6981
  1079 18.70   13.5000  -3.0000  18.5000   C.3       1 RES1  18.6981
  1080 18.70   13.5000  -2.5000  17.5000   C.3       1 RES1  18.6981
  1081 18.70   13.5000  -2.5000  18.0000   C.3       1 RES1  18.6981
  1082 18.70   13.5000  -2.5000  18.5000   C.3       1 RES1  18.6981
  1083 18.70   14.0000  -3.5000  17.5000   C.3       1 RES1  18.6981
  1084 18.70   14.0000  -3.5000  18.0000   C.3       1 RES1  18.6981
  1085 18.70   14.0000  -3.5000  18.5000   C.3       1 RES1  18.6981
  1086 18.70   14.0000  -3.0000  17.5000   C.3       1 RES1  18.6981
  1087 18.70   14.0000  -3.0000  18.0000   C.3       1 RES1  18.6981
  1088 18.70   14.0000  -3.0000  18.5000   C.3       1 RES1  18.6981
  1089 18.70   14.0000  -2.5000  17.5000   C.3       1 RES1  18.6981
  1090 18.70   14.0000  -2.5000  18.0000   C.3       1 RES1  18.6981
  1091 18.70   14.0000  -2.5000  18.5000   C.3       1 RES1  18.6981
  1092 21.06   10.0000  -6.0000  20.5000   C.3       1 RES1  21.0595
  1093 21.06   10.5000  -6.0000  20.5000   C.3       1 RES1  21.0595
  1094 21.06   11.0000  -6.0000  20.5000   C.3       1 RES1  21.0595
  1095 23.43    9.5000  -8.5000  21.0000   C.3       1 RES1  23.4301
  1096 23.43    9.5000  -8.5000  21.5000   C.3       1 RES1  23.4301
  1097 23.43    9.5000  -8.5000  22.0000   C.3       1 RES1  23.4301
  1098 23.43    9.5000  -8.0000  21.0000   C.3       1 RES1  23.4301
  1099 23.43    9.5000  -8.0000  21.5000   C.3       1 RES1  23.4301
  1100 23.43    9.5000  -8.0000  22.0000   C.3       1 RES1  23.4301
  1101 23.43    9.5000  -7.5000  21.0000   C.3       1 RES1  23.4301
  1102 23.43   10.0000  -8.5000  21.0000   C.3       1 RES1  23.4301
  1103 23.43   10.0000  -8.5000  21.5000   C.3       1 RES1  23.4301
  1104 23.43   10.0000  -8.5000  22.0000   C.3       1 RES1  23.4301
  1105 23.43   10.0000  -8.0000  21.0000   C.3       1 RES1  23.4301
  1106 23.43   10.0000  -8.0000  21.5000   C.3       1 RES1  23.4301
  1107 23.43   10.0000  -8.0000  22.0000   C.3       1 RES1  23.4301
  1108 23.43   10.0000  -7.5000  21.0000   C.3       1 RES1  23.4301
  1109 23.43   10.0000  -7.5000  21.5000   C.3       1 RES1  23.4301
  1110 23.43   10.0000  -7.5000  22.0000   C.3       1 RES1  23.4301
  1111 23.43   10.5000  -8.5000  21.0000   C.3       1 RES1  23.4301
  1112 23.43   10.5000  -8.5000  21.5000   C.3       1 RES1  23.4301
  1113 23.43   10.5000  -8.5000  22.0000   C.3       1 RES1  23.4301
  1114 23.43   10.5000  -8.0000  21.0000   C.3       1 RES1  23.4301
  1115 23.43   10.5000  -8.0000  21.5000   C.3       1 RES1  23.4301
  1116 23.43   10.5000  -8.0000  22.0000   C.3       1 RES1  23.4301
  1117 23.43   10.5000  -7.5000  21.0000   C.3       1 RES1  23.4301
  1118 23.43   10.5000  -7.5000  21.5000   C.3       1 RES1  23.4301
  1119 23.43   10.5000  -7.5000  22.0000   C.3       1 RES1  23.4301
  1120 20.82   11.0000  -4.5000  14.5000   C.3       1 RES1  20.8226
  1121 20.82   11.0000  -4.0000  14.5000   C.3       1 RES1  20.8226
  1122 20.82   11.0000  -3.5000  14.5000   C.3       1 RES1  20.8226
  1123 20.82   11.5000  -4.5000  14.5000   C.3       1 RES1  20.8226
  1124 20.82   11.5000  -4.0000  14.5000   C.3       1 RES1  20.8226
  1125 20.82   11.5000  -3.5000  14.5000   C.3       1 RES1  20.8226
  1126 20.82   12.0000  -4.5000  14.5000   C.3       1 RES1  20.8226
  1127 20.82   12.0000  -4.0000  14.5000   C.3       1 RES1  20.8226
  1128 20.82   12.0000  -3.5000  14.5000   C.3       1 RES1  20.8226
  1129 17.07    9.5000  -9.0000  17.0000   C.3       1 RES1  17.0706
  1130 17.07    9.5000  -9.0000  17.5000   C.3       1 RES1  17.0706
  1131 17.07    9.5000  -8.5000  17.0000   C.3       1 RES1  17.0706
  1132 17.07    9.5000  -8.5000  17.5000   C.3       1 RES1  17.0706
  1133 17.07    9.5000  -8.0000  17.5000   C.3       1 RES1  17.0706
  1134 18.78    8.5000  -6.0000  19.5000   C.3       1 RES1  18.7757
  1135 18.78    8.5000  -6.0000  20.0000   C.3       1 RES1  18.7757
  1136 18.78    9.0000  -6.0000  19.5000   C.3       1 RES1  18.7757
  1137 18.78    9.5000  -6.0000  19.5000   C.3       1 RES1  18.7757
  1138 17.35   14.5000  -3.5000  19.0000   C.3       1 RES1  17.3549
  1139 17.35   14.5000  -3.5000  19.5000   C.3       1 RES1  17.3549
  1140 17.35   14.5000  -3.5000  20.0000   C.3       1 RES1  17.3549
  1141 17.35   14.5000  -3.0000  19.0000   C.3       1 RES1  17.3549
  1142 17.35   14.5000  -3.0000  19.5000   C.3       1 RES1  17.3549
  1143 17.35   14.5000  -3.0000  20.0000   C.3       1 RES1  17.3549
  1144 17.35   14.5000  -2.5000  19.0000   C.3       1 RES1  17.3549
  1145 17.35   14.5000  -2.5000  19.5000   C.3       1 RES1  17.3549
  1146 17.35   14.5000  -2.5000  20.0000   C.3       1 RES1  17.3549
  1147 20.97    8.5000  -7.5000  20.0000   C.3       1 RES1  20.9705
  1148 20.97    8.5000  -7.5000  20.5000   C.3       1 RES1  20.9705
  1149 20.97    8.5000  -7.0000  20.0000   C.3       1 RES1  20.9705
  1150 20.97    8.5000  -7.0000  20.5000   C.3       1 RES1  20.9705
  1151 20.97    8.5000  -6.5000  20.0000   C.3       1 RES1  20.9705
  1152 20.97    8.5000  -6.5000  20.5000   C.3       1 RES1  20.9705
  1153 17.06    9.5000  -9.0000  18.5000   C.3       1 RES1  17.0605
  1154 17.06   10.0000  -9.0000  18.5000   C.3       1 RES1  17.0605
  1155 17.06   10.5000  -9.0000  18.5000   C.3       1 RES1  17.0605
  1156 17.71   12.0000  -7.5000  24.0000   C.3       1 RES1  17.7099
  1157 17.71   12.0000  -7.5000  24.5000   C.3       1 RES1  17.7099
  1158 17.71   12.5000  -7.5000  24.0000   C.3       1 RES1  17.7099
  1159 17.71   12.5000  -7.5000  24.5000   C.3       1 RES1  17.7099
  1160 17.71   13.0000  -7.5000  24.0000   C.3       1 RES1  17.7099
  1161 17.71   13.0000  -7.5000  24.5000   C.3       1 RES1  17.7099
  1162 19.93   10.5000  -8.0000  19.5000   C.3       1 RES1  19.9291
  1163 19.93   10.5000  -7.5000  19.5000   C.3       1 RES1  19.9291
  1164 19.93   10.5000  -7.0000  19.5000   C.3       1 RES1  19.9291
  1165 21.08   10.5000  -6.5000  20.0000   C.3       1 RES1  21.0847
  1166 21.08   10.5000  -6.5000  20.5000   C.3       1 RES1  21.0847
  1167 21.08   11.0000  -6.5000  20.0000   C.3       1 RES1  21.0847
  1168 21.08   11.0000  -6.5000  20.5000   C.3       1 RES1  21.0847
  1169 17.76   11.5000  -8.5000  23.5000   C.3       1 RES1  17.7577
  1170 17.76   11.5000  -8.0000  23.5000   C.3       1 RES1  17.7577
  1171 17.76   11.5000  -7.5000  23.5000   C.3       1 RES1  17.7577
  1172 17.76   12.0000  -7.5000  23.5000   C.3       1 RES1  17.7577
  1173 17.76   12.5000  -7.5000  23.5000   C.3       1 RES1  17.7577
  1174 17.82    9.5000  -7.5000  15.5000   C.3       1 RES1  17.8176
  1175 17.82    9.5000  -7.5000  16.0000   C.3       1 RES1  17.8176
  1176 17.82    9.5000  -7.5000  16.5000   C.3       1 RES1  17.8176
  1177 17.82   10.0000  -7.5000  15.5000   C.3       1 RES1  17.8176
  1178 17.82   10.0000  -7.5000  16.0000   C.3       1 RES1  17.8176
  1179 17.82   10.0000  -7.5000  16.5000   C.3       1 RES1  17.8176
  1180 17.82   10.5000  -7.5000  15.5000   C.3       1 RES1  17.8176
  1181 17.82   10.5000  -7.5000  16.0000   C.3       1 RES1  17.8176
  1182 17.82   10.5000  -7.5000  16.5000   C.3       1 RES1  17.8176
  1183 17.20   11.0000  -8.0000  23.5000   C.3       1 RES1  17.1999
  1184 20.03   11.5000  -8.5000  20.5000   C.3       1 RES1  20.0302
  1185 20.39   11.0000  -5.5000  22.0000   C.3       1 RES1  20.3901
  1186 17.62    9.5000  -7.5000  19.0000   C.3       1 RES1  17.6247
  1187 17.62    9.5000  -7.0000  19.0000   C.3       1 RES1  17.6247
  1188 17.62    9.5000  -6.5000  19.0000   C.3       1 RES1  17.6247
  1189 21.78   10.0000  -6.5000  21.5000   C.3       1 RES1  21.7837
  1190 21.78   10.0000  -6.0000  21.0000   C.3       1 RES1  21.7837
  1191 21.78   10.0000  -6.0000  21.5000   C.3       1 RES1  21.7837
  1192 21.78   10.0000  -6.0000  22.0000   C.3       1 RES1  21.7837
  1193 21.78   10.5000  -7.0000  21.0000   C.3       1 RES1  21.7837
  1194 21.78   10.5000  -7.0000  21.5000   C.3       1 RES1  21.7837
  1195 21.78   10.5000  -6.5000  21.0000   C.3       1 RES1  21.7837
  1196 21.78   10.5000  -6.5000  21.5000   C.3       1 RES1  21.7837
  1197 21.78   10.5000  -6.0000  21.0000   C.3       1 RES1  21.7837
  1198 21.78   10.5000  -6.0000  21.5000   C.3       1 RES1  21.7837
  1199 21.78   10.5000  -6.0000  22.0000   C.3       1 RES1  21.7837
  1200 21.78   11.0000  -7.0000  21.0000   C.3       1 RES1  21.7837
  1201 21.78   11.0000  -7.0000  21.5000   C.3       1 RES1  21.7837
  1202 21.78   11.0000  -6.5000  21.0000   C.3       1 RES1  21.7837
  1203 21.78   11.0000  -6.5000  21.5000   C.3       1 RES1  21.7837
  1204 21.78   11.0000  -6.0000  21.0000   C.3       1 RES1  21.7837
  1205 21.78   11.0000  -6.0000  21.5000   C.3       1 RES1  21.7837
  1206 21.78   11.0000  -6.0000  22.0000   C.3       1 RES1  21.7837
  1207 17.78   11.0000  -9.0000  23.0000   C.3       1 RES1  17.7769
  1208 17.78   11.5000  -9.0000  23.0000   C.3       1 RES1  17.7769
  1209 23.95    8.5000  -7.5000  21.5000   C.3       1 RES1  23.9474
  1210 23.95    8.5000  -7.5000  22.0000   C.3       1 RES1  23.9474
  1211 23.95    8.5000  -7.5000  22.5000   C.3       1 RES1  23.9474
  1212 23.95    8.5000  -7.0000  21.5000   C.3       1 RES1  23.9474
  1213 23.95    8.5000  -7.0000  22.0000   C.3       1 RES1  23.9474
  1214 23.95    8.5000  -7.0000  22.5000   C.3       1 RES1  23.9474
  1215 23.95    8.5000  -6.5000  21.5000   C.3       1 RES1  23.9474
  1216 23.95    8.5000  -6.5000  22.0000   C.3       1 RES1  23.9474
  1217 23.95    8.5000  -6.5000  22.5000   C.3       1 RES1  23.9474
  1218 23.95    9.0000  -7.5000  21.5000   C.3       1 RES1  23.9474
  1219 23.95    9.0000  -7.5000  22.0000   C.3       1 RES1  23.9474
  1220 23.95    9.0000  -7.5000  22.5000   C.3       1 RES1  23.9474
  1221 23.95    9.0000  -7.0000  21.5000   C.3       1 RES1  23.9474
  1222 23.95    9.0000  -7.0000  22.0000   C.3       1 RES1  23.9474
  1223 23.95    9.0000  -7.0000  22.5000   C.3       1 RES1  23.9474
  1224 23.95    9.0000  -6.5000  21.5000   C.3       1 RES1  23.9474
  1225 23.95    9.0000  -6.5000  22.0000   C.3       1 RES1  23.9474
  1226 23.95    9.0000  -6.5000  22.5000   C.3       1 RES1  23.9474
  1227 23.95    9.5000  -7.5000  21.5000   C.3       1 RES1  23.9474
  1228 23.95    9.5000  -7.5000  22.0000   C.3       1 RES1  23.9474
  1229 23.95    9.5000  -7.5000  22.5000   C.3       1 RES1  23.9474
  1230 23.95    9.5000  -7.0000  21.5000   C.3       1 RES1  23.9474
  1231 23.95    9.5000  -7.0000  22.0000   C.3       1 RES1  23.9474
  1232 23.95    9.5000  -7.0000  22.5000   C.3       1 RES1  23.9474
  1233 23.95    9.5000  -6.5000  21.5000   C.3       1 RES1  23.9474
  1234 23.95    9.5000  -6.5000  22.0000   C.3       1 RES1  23.9474
  1235 23.95    9.5000  -6.5000  22.5000   C.3       1 RES1  23.9474
  1236 20.03    9.5000  -9.0000  22.0000   C.3       1 RES1  20.0255
  1237 20.03   10.0000  -9.0000  22.0000   C.3       1 RES1  20.0255
  1238 20.03   10.5000  -9.0000  22.0000   C.3       1 RES1  20.0255
  1239 17.80    9.0000  -7.5000  15.5000   C.3       1 RES1  17.8015
  1240 17.80    9.0000  -7.5000  16.0000   C.3       1 RES1  17.8015
  1241 17.80    9.0000  -7.5000  16.5000   C.3       1 RES1  17.8015
  1242 17.31    9.0000  -7.0000  18.5000   C.3       1 RES1  17.3108
  1243 17.31    9.0000  -6.5000  18.5000   C.3       1 RES1  17.3108
  1244 20.52   10.0000  -7.5000  23.5000   C.3       1 RES1  20.5211
  1245 20.52   10.0000  -7.0000  23.5000   C.3       1 RES1  20.5211
  1246 20.52   10.0000  -6.5000  23.5000   C.3       1 RES1  20.5211
  1247 20.52   10.5000  -7.5000  23.5000   C.3       1 RES1  20.5211
  1248 20.52   10.5000  -7.0000  23.5000   C.3       1 RES1  20.5211
  1249 20.52   10.5000  -6.5000  23.5000   C.3       1 RES1  20.5211
  1250 20.52   11.0000  -7.5000  23.5000   C.3       1 RES1  20.5211
  1251 20.52   11.0000  -7.0000  23.5000   C.3       1 RES1  20.5211
  1252 20.52   11.0000  -6.5000  23.5000   C.3       1 RES1  20.5211
  1253 18.47    8.5000  -8.5000  20.5000   C.3       1 RES1  18.4736
  1254 18.47    8.5000  -8.5000  21.0000   C.3       1 RES1  18.4736
  1255 18.47    8.5000  -8.5000  21.5000   C.3       1 RES1  18.4736
  1256 18.47    8.5000  -8.0000  20.5000   C.3       1 RES1  18.4736
  1257 18.47    8.5000  -8.0000  21.0000   C.3       1 RES1  18.4736
  1258 17.56   11.5000  -9.0000  23.5000   C.3       1 RES1  17.5582
  1259 18.41   11.5000  -4.0000  18.0000   C.3       1 RES1  18.4072
  1260 18.41   11.5000  -3.5000  18.0000   C.3       1 RES1  18.4072
  1261 18.41   11.5000  -3.0000  18.0000   C.3       1 RES1  18.4072
  1262 18.41   12.0000  -4.0000  18.0000   C.3       1 RES1  18.4072
  1263 18.41   12.0000  -3.5000  18.0000   C.3       1 RES1  18.4072
  1264 18.41   12.0000  -3.0000  18.0000   C.3       1 RES1  18.4072
  1265 18.41   12.5000  -4.0000  18.0000   C.3       1 RES1  18.4072
  1266 18.41   12.5000  -3.5000  18.0000   C.3       1 RES1  18.4072
  1267 18.41   12.5000  -3.0000  18.0000   C.3       1 RES1  18.4072
  1268 18.00   11.0000  -5.5000  22.5000   C.3       1 RES1  17.9994
  1269 18.00   11.0000  -5.5000  23.0000   C.3       1 RES1  17.9994
  1270 18.36   11.0000  -1.0000  17.0000   C.3       1 RES1  18.3569
  1271 18.36   11.0000  -0.5000  17.0000   C.3       1 RES1  18.3569
  1272 18.36   11.0000   0.0000  16.0000   C.3       1 RES1  18.3569
  1273 18.36   11.0000   0.0000  16.5000   C.3       1 RES1  18.3569
  1274 18.36   11.0000   0.0000  17.0000   C.3       1 RES1  18.3569
  1275 18.36   11.5000  -1.0000  17.0000   C.3       1 RES1  18.3569
  1276 18.36   11.5000  -0.5000  17.0000   C.3       1 RES1  18.3569
  1277 18.36   11.5000   0.0000  16.0000   C.3       1 RES1  18.3569
  1278 18.36   11.5000   0.0000  16.5000   C.3       1 RES1  18.3569
  1279 18.36   11.5000   0.0000  17.0000   C.3       1 RES1  18.3569
  1280 18.36   12.0000  -1.0000  17.0000   C.3       1 RES1  18.3569
  1281 18.36   12.0000  -0.5000  17.0000   C.3       1 RES1  18.3569
  1282 18.36   12.0000   0.0000  16.0000   C.3       1 RES1  18.3569
  1283 18.36   12.0000   0.0000  16.5000   C.3       1 RES1  18.3569
  1284 18.36   12.0000   0.0000  17.0000   C.3       1 RES1  18.3569
  1285 17.30   13.0000  -2.5000  16.0000   C.3       1 RES1  17.2984
  1286 17.30   13.0000  -2.5000  16.5000   C.3       1 RES1  17.2984
  1287 17.30   13.0000  -2.5000  17.0000   C.3       1 RES1  17.2984
  1288 17.90   10.5000  -7.0000  19.0000   C.3       1 RES1  17.9010
  1289 17.90   10.5000  -6.5000  19.0000   C.3       1 RES1  17.9010
  1290 17.90   10.5000  -6.0000  19.0000   C.3       1 RES1  17.9010
  1291 17.90   10.5000  -6.0000  19.5000   C.3       1 RES1  17.9010
  1292 17.90   11.0000  -7.0000  19.0000   C.3       1 RES1  17.9010
  1293 17.90   11.0000  -6.5000  19.0000   C.3       1 RES1  17.9010
  1294 17.90   11.0000  -6.0000  19.0000   C.3       1 RES1  17.9010
  1295 17.90   11.0000  -6.0000  19.5000   C.3       1 RES1  17.9010
  1296 17.90   11.5000  -7.0000  19.0000   C.3       1 RES1  17.9010
  1297 17.90   11.5000  -6.5000  19.0000   C.3       1 RES1  17.9010
  1298 17.90   11.5000  -6.5000  19.5000   C.3       1 RES1  17.9010
  1299 17.90   11.5000  -6.0000  19.0000   C.3       1 RES1  17.9010
  1300 17.90   11.5000  -6.0000  19.5000   C.3       1 RES1  17.9010
  1301 17.90   11.5000  -6.0000  20.0000   C.3       1 RES1  17.9010
  1302 20.72   10.0000  -6.0000  22.5000   C.3       1 RES1  20.7164
  1303 20.72   10.0000  -6.0000  23.0000   C.3       1 RES1  20.7164
  1304 20.72   10.5000  -6.0000  22.5000   C.3       1 RES1  20.7164
  1305 20.72   10.5000  -6.0000  23.0000   C.3       1 RES1  20.7164
  1306 20.72   11.0000  -6.0000  22.5000   C.3       1 RES1  20.7164
  1307 20.72   11.0000  -6.0000  23.0000   C.3       1 RES1  20.7164
  1308 22.00   11.0000  -4.0000  15.0000   C.3       1 RES1  21.9983
  1309 22.00   11.0000  -4.0000  15.5000   C.3       1 RES1  21.9983
  1310 22.00   11.0000  -4.0000  16.0000   C.3       1 RES1  21.9983
  1311 22.00   11.0000  -3.5000  15.0000   C.3       1 RES1  21.9983
  1312 22.00   11.0000  -3.5000  15.5000   C.3       1 RES1  21.9983
  1313 22.00   11.0000  -3.5000  16.0000   C.3       1 RES1  21.9983
  1314 22.00   11.5000  -4.0000  15.0000   C.3       1 RES1  21.9983
  1315 22.00   11.5000  -4.0000  15.5000   C.3       1 RES1  21.9983
  1316 22.00   11.5000  -4.0000  16.0000   C.3       1 RES1  21.9983
  1317 22.00   11.5000  -3.5000  15.0000   C.3       1 RES1  21.9983
  1318 22.00   11.5000  -3.5000  15.5000   C.3       1 RES1  21.9983
  1319 22.00   11.5000  -3.5000  16.0000   C.3       1 RES1  21.9983
  1320 22.00   12.0000  -4.0000  15.0000   C.3       1 RES1  21.9983
  1321 22.00   12.0000  -4.0000  15.5000   C.3       1 RES1  21.9983
  1322 22.00   12.0000  -4.0000  16.0000   C.3       1 RES1  21.9983
  1323 22.00   12.0000  -3.5000  15.0000   C.3       1 RES1  21.9983
  1324 22.00   12.0000  -3.5000  15.5000   C.3       1 RES1  21.9983
  1325 22.00   12.0000  -3.5000  16.0000   C.3       1 RES1  21.9983
  1326 20.26   11.5000  -8.0000  20.0000   C.3       1 RES1  20.2619
  1327 20.26   11.5000  -8.0000  20.5000   C.3       1 RES1  20.2619
  1328 20.26   11.5000  -7.5000  20.0000   C.3       1 RES1  20.2619
  1329 20.26   11.5000  -7.5000  20.5000   C.3       1 RES1  20.2619
  1330 20.26   11.5000  -7.0000  20.0000   C.3       1 RES1  20.2619
  1331 20.26   11.5000  -7.0000  20.5000   C.3       1 RES1  20.2619
  1332 18.85    9.0000  -7.0000  23.0000   C.3       1 RES1  18.8498
  1333 19.10   11.0000  -8.5000  19.5000   C.3       1 RES1  19.0955
  1334 19.10   11.0000  -8.0000  19.5000   C.3       1 RES1  19.0955
  1335 19.10   11.0000  -7.5000  19.5000   C.3       1 RES1  19.0955
  1336 19.70   11.5000  -6.0000  20.5000   C.3       1 RES1  19.7002
  1337 18.48   10.5000  -6.5000  19.5000   C.3       1 RES1  18.4765
  1338 18.48   11.0000  -6.5000  19.5000   C.3       1 RES1  18.4765
  1339 18.32   10.5000  -6.0000  23.5000   C.3       1 RES1  18.3226
  1340 18.32   11.0000  -6.0000  23.5000   C.3       1 RES1  18.3226
  1341 17.39    9.5000  -7.0000  23.5000   C.3       1 RES1  17.3927
  1342 17.90   10.5000  -9.0000  16.5000   C.3       1 RES1  17.8969
  1343 17.90   10.5000  -9.0000  17.0000   C.3       1 RES1  17.8969
  1344 17.90   10.5000  -8.5000  16.5000   C.3       1 RES1  17.8969
  1345 17.90   10.5000  -8.5000  17.0000   C.3       1 RES1  17.8969
  1346 17.90   10.5000  -8.0000  16.5000   C.3       1 RES1  17.8969
  1347 17.90   10.5000  -8.0000  17.0000   C.3       1 RES1  17.8969
  1348 17.90   11.0000  -9.0000  16.0000   C.3       1 RES1  17.8969
  1349 17.90   11.0000  -9.0000  16.5000   C.3       1 RES1  17.8969
  1350 17.90   11.0000  -9.0000  17.0000   C.3       1 RES1  17.8969
  1351 17.90   11.0000  -8.5000  16.0000   C.3       1 RES1  17.8969
  1352 17.90   11.0000  -8.5000  16.5000   C.3       1 RES1  17.8969
  1353 17.90   11.0000  -8.5000  17.0000   C.3       1 RES1  17.8969
  1354 17.90   11.0000  -8.0000  16.0000   C.3       1 RES1  17.8969
  1355 17.90   11.0000  -8.0000  16.5000   C.3       1 RES1  17.8969
  1356 17.90   11.0000  -8.0000  17.0000   C.3       1 RES1  17.8969
  1357 17.90   11.5000  -9.0000  16.0000   C.3       1 RES1  17.8969
  1358 17.90   11.5000  -9.0000  16.5000   C.3       1 RES1  17.8969
  1359 17.90   11.5000  -9.0000  17.0000   C.3       1 RES1  17.8969
  1360 17.90   11.5000  -8.5000  16.0000   C.3       1 RES1  17.8969
  1361 17.90   11.5000  -8.5000  16.5000   C.3       1 RES1  17.8969
  1362 17.90   11.5000  -8.5000  17.0000   C.3       1 RES1  17.8969
  1363 17.90   11.5000  -8.0000  16.0000   C.3       1 RES1  17.8969
  1364 17.90   11.5000  -8.0000  16.5000   C.3       1 RES1  17.8969
  1365 17.90   11.5000  -8.0000  17.0000   C.3       1 RES1  17.8969
  1366 20.39   10.5000  -8.5000  22.5000   C.3       1 RES1  20.3887
  1367 20.39   11.0000  -8.5000  22.5000   C.3       1 RES1  20.3887
  1368 20.39   11.5000  -8.5000  22.5000   C.3       1 RES1  20.3887
  1369 18.34   10.0000  -5.5000  20.0000   C.3       1 RES1  18.3425
  1370 18.34   10.5000  -5.5000  20.0000   C.3       1 RES1  18.3425
  1371 18.34   11.0000  -5.5000  20.0000   C.3       1 RES1  18.3425
  1372 17.43   12.0000  -6.0000  21.0000   C.3       1 RES1  17.4261
  1373 17.43   12.0000  -5.5000  21.0000   C.3       1 RES1  17.4261
  1374 17.43   12.0000  -5.0000  21.0000   C.3       1 RES1  17.4261
  1375 17.43   12.0000  -5.0000  21.5000   C.3       1 RES1  17.4261
  1376 17.43   12.0000  -5.0000  22.0000   C.3       1 RES1  17.4261
  1377 18.98    9.0000  -9.0000  19.5000   C.3       1 RES1  18.9807
  1378 18.98    9.0000  -9.0000  20.0000   C.3       1 RES1  18.9807
  1379 18.98    9.0000  -9.0000  20.5000   C.3       1 RES1  18.9807
  1380 18.98    9.5000  -9.0000  19.5000   C.3       1 RES1  18.9807
  1381 18.98   10.0000  -9.0000  19.5000   C.3       1 RES1  18.9807
  1382 17.43   10.0000  -3.0000  16.0000   C.3       1 RES1  17.4337
  1383 17.43   10.0000  -3.0000  16.5000   C.3       1 RES1  17.4337
  1384 17.43   10.0000  -3.0000  17.0000   C.3       1 RES1  17.4337
  1385 17.43   10.0000  -2.5000  16.0000   C.3       1 RES1  17.4337
  1386 17.43   10.0000  -2.5000  16.5000   C.3       1 RES1  17.4337
  1387 17.43   10.0000  -2.5000  17.0000   C.3       1 RES1  17.4337
  1388 17.43   10.0000  -2.0000  16.0000   C.3       1 RES1  17.4337
  1389 17.43   10.0000  -2.0000  16.5000   C.3       1 RES1  17.4337
  1390 17.43   10.0000  -2.0000  17.0000   C.3       1 RES1  17.4337
  1391 17.43   10.5000  -3.5000  16.5000   C.3       1 RES1  17.4337
  1392 17.43   10.5000  -3.5000  17.0000   C.3       1 RES1  17.4337
  1393 17.43   10.5000  -3.0000  15.5000   C.3       1 RES1  17.4337
  1394 17.43   10.5000  -3.0000  17.5000   C.3       1 RES1  17.4337
  1395 17.43   12.0000  -2.0000  17.0000   C.3       1 RES1  17.4337
  1396 22.57    8.5000  -7.5000  21.0000   C.3       1 RES1  22.5722
  1397 22.57    8.5000  -7.0000  21.0000   C.3       1 RES1  22.5722
  1398 22.57    8.5000  -6.5000  21.0000   C.3       1 RES1  22.5722
  1399 22.57    9.0000  -7.5000  21.0000   C.3       1 RES1  22.5722
  1400 22.57    9.0000  -7.0000  21.0000   C.3       1 RES1  22.5722
  1401 22.57    9.0000  -6.5000  21.0000   C.3       1 RES1  22.5722
  1402 22.57    9.5000  -7.0000  21.0000   C.3       1 RES1  22.5722
  1403 22.57    9.5000  -6.5000  21.0000   C.3       1 RES1  22.5722
  1404 20.95    9.5000  -8.5000  20.0000   C.3       1 RES1  20.9499
  1405 20.95    9.5000  -8.5000  20.5000   C.3       1 RES1  20.9499
  1406 20.95    9.5000  -8.0000  20.0000   C.3       1 RES1  20.9499
  1407 20.95    9.5000  -8.0000  20.5000   C.3       1 RES1  20.9499
  1408 17.84   13.0000  -8.0000  22.0000   C.3       1 RES1  17.8392
  1409 17.84   13.0000  -7.5000  22.0000   C.3       1 RES1  17.8392
  1410 17.84   13.0000  -7.0000  22.0000   C.3       1 RES1  17.8392
  1411 17.87   10.5000  -9.0000  17.5000   C.3       1 RES1  17.8652
  1412 17.87   10.5000  -9.0000  18.0000   C.3       1 RES1  17.8652
  1413 17.87   10.5000  -8.5000  17.5000   C.3       1 RES1  17.8652
  1414 17.87   10.5000  -8.5000  18.0000   C.3       1 RES1  17.8652
  1415 17.87   10.5000  -8.0000  17.5000   C.3       1 RES1  17.8652
  1416 17.87   10.5000  -8.0000  18.0000   C.3       1 RES1  17.8652
  1417 17.87   11.0000  -9.0000  17.5000   C.3       1 RES1  17.8652
  1418 17.87   11.0000  -9.0000  18.0000   C.3       1 RES1  17.8652
  1419 17.87   11.0000  -8.5000  17.5000   C.3       1 RES1  17.8652
  1420 17.87   11.0000  -8.5000  18.0000   C.3       1 RES1  17.8652
  1421 17.87   11.0000  -8.0000  17.5000   C.3       1 RES1  17.8652
  1422 17.87   11.0000  -8.0000  18.0000   C.3       1 RES1  17.8652
  1423 17.87   11.5000  -9.0000  17.5000   C.3       1 RES1  17.8652
  1424 17.87   11.5000  -9.0000  18.0000   C.3       1 RES1  17.8652
  1425 17.87   11.5000  -8.5000  17.5000   C.3       1 RES1  17.8652
  1426 17.87   11.5000  -8.5000  18.0000   C.3       1 RES1  17.8652
  1427 17.87   11.5000  -8.0000  17.5000   C.3       1 RES1  17.8652
  1428 17.87   11.5000  -8.0000  18.0000   C.3       1 RES1  17.8652
  1429 17.04   12.5000  -5.5000  23.0000   C.3       1 RES1  17.0426
  1430 17.34   11.0000  -5.0000  22.5000   C.3       1 RES1  17.3371
  1431 20.59    9.5000  -9.0000  20.5000   C.3       1 RES1  20.5904
  1432 20.59    9.5000  -9.0000  21.0000   C.3       1 RES1  20.5904
  1433 20.59    9.5000  -9.0000  21.5000   C.3       1 RES1  20.5904
  1434 20.59   10.0000  -9.0000  20.5000   C.3       1 RES1  20.5904
  1435 20.59   10.0000  -9.0000  21.0000   C.3       1 RES1  20.5904
  1436 20.59   10.0000  -9.0000  21.5000   C.3       1 RES1  20.5904
  1437 20.59   10.5000  -9.0000  20.5000   C.3       1 RES1  20.5904
  1438 20.59   10.5000  -9.0000  21.0000   C.3       1 RES1  20.5904
  1439 20.59   10.5000  -9.0000  21.5000   C.3       1 RES1  20.5904
  1440 17.47   13.0000  -4.5000  16.0000   C.3       1 RES1  17.4671
  1441 17.47   13.0000  -4.5000  16.5000   C.3       1 RES1  17.4671
  1442 17.47   13.0000  -4.5000  17.0000   C.3       1 RES1  17.4671
  1443 18.08   11.5000  -8.0000  19.5000   C.3       1 RES1  18.0759
  1444 18.08   11.5000  -7.5000  19.5000   C.3       1 RES1  18.0759
  1445 18.08   11.5000  -7.0000  19.5000   C.3       1 RES1  18.0759
  1446 17.56   11.5000  -8.5000  24.0000   C.3       1 RES1  17.5617
  1447 17.56   11.5000  -8.0000  24.0000   C.3       1 RES1  17.5617
  1448 17.56   11.5000  -7.5000  24.0000   C.3       1 RES1  17.5617
  1449 17.88   12.0000  -5.5000  21.5000   C.3       1 RES1  17.8802
  1450 17.88   12.0000  -5.5000  22.0000   C.3       1 RES1  17.8802
  1451 17.88   12.0000  -5.5000  22.5000   C.3       1 RES1  17.8802
  1452 17.16   10.5000  -8.5000  23.0000   C.3       1 RES1  17.1610
  1453 19.63   11.5000  -8.5000  20.0000   C.3       1 RES1  19.6318
  1454 19.15   10.5000  -2.5000  14.5000   C.3       1 RES1  19.1523
  1455 19.15   10.5000  -2.5000  15.0000   C.3       1 RES1  19.1523
  1456 19.15   10.5000  -2.5000  15.5000   C.3       1 RES1  19.1523
  1457 19.15   10.5000  -2.0000  14.5000   C.3       1 RES1  19.1523
  1458 19.15   10.5000  -2.0000  15.0000   C.3       1 RES1  19.1523
  1459 19.15   10.5000  -2.0000  15.5000   C.3       1 RES1  19.1523
  1460 19.15   10.5000  -1.5000  14.5000   C.3       1 RES1  19.1523
  1461 19.15   10.5000  -1.5000  15.0000   C.3       1 RES1  19.1523
  1462 19.15   10.5000  -1.5000  15.5000   C.3       1 RES1  19.1523
  1463 19.15   11.0000  -2.5000  14.5000   C.3       1 RES1  19.1523
  1464 19.15   11.0000  -2.0000  14.5000   C.3       1 RES1  19.1523
  1465 19.15   11.0000  -1.5000  14.5000   C.3       1 RES1  19.1523
  1466 19.15   11.0000  -1.5000  15.0000   C.3       1 RES1  19.1523
  1467 19.15   11.5000  -2.5000  14.5000   C.3       1 RES1  19.1523
  1468 19.15   11.5000  -2.0000  14.5000   C.3       1 RES1  19.1523
  1469 19.15   11.5000  -1.5000  14.5000   C.3       1 RES1  19.1523
  1470 19.15   11.5000  -1.5000  15.0000   C.3       1 RES1  19.1523
  1471 19.84   12.0000  -8.5000  22.5000   C.3       1 RES1  19.8434
  1472 19.84   12.0000  -8.0000  22.5000   C.3       1 RES1  19.8434
  1473 19.84   12.0000  -7.5000  22.5000   C.3       1 RES1  19.8434
  1474 17.80   10.0000  -6.0000  18.0000   C.3       1 RES1  17.8025
  1475 17.80   10.5000  -6.0000  18.0000   C.3       1 RES1  17.8025
  1476 17.80   11.0000  -6.0000  18.0000   C.3       1 RES1  17.8025
  1477 19.98   11.5000  -6.5000  20.5000   C.3       1 RES1  19.9780
  1478 20.37   12.5000  -4.0000  16.0000   C.3       1 RES1  20.3663
  1479 20.37   12.5000  -3.5000  16.0000   C.3       1 RES1  20.3663
  1480 20.37   12.5000  -3.0000  16.0000   C.3       1 RES1  20.3663
  1481 18.00   11.5000  -8.5000  19.5000   C.3       1 RES1  18.0016
@<TRIPOS>SUBSTRUCTURE
     1 RES1        1 GROUP             0 ****  ****    0  
