@<TRIPOS>MOLECULE
9.67145706802
    33    36     1     0     0
SMALL
USER_CHARGES
****
Generated from the CSD

@<TRIPOS>ATOM
     1 C        9.3384  -6.8567  23.1494   C.ar      1 RES1  19.9610
     2 C       10.1753  -6.4993  22.0907   C.ar      1 RES1  21.8919
     3 C       10.3889  -5.1228  22.1743   C.ar      1 RES1  17.7108
     4 C        9.7269  -4.6864  23.3140   C.ar      1 RES1  15.9521
     5 N        9.0931  -5.7394  23.8620   N.ar      1 RES1  10.5722
     6 N        9.7902  -3.4028  23.7070   N.ar      1 RES1  12.1768
     7 C       10.5640  -2.5563  22.9957   C.ar      1 RES1  11.5979
     8 N       11.2162  -2.9535  21.8801   N.ar      1 RES1  15.4558
     9 C       11.0928  -4.2062  21.3936   C.ar      1 RES1  16.3347
    10 N       11.6342  -4.5272  20.1973   N.pl3     1 RES1  17.0613
    11 C       10.8039  -5.1546  19.1733   C.3       1 RES1  17.8568
    12 C       10.6808  -4.2282  17.9411   C.3       1 RES1  11.5465
    13 C       12.0969  -3.7808  17.6158   C.ar      1 RES1  22.4165
    14 C       13.1598  -3.8169  18.5062   C.ar      1 RES1  18.1300
    15 N       14.2483  -3.3499  17.8672   N.ar      1 RES1  18.6981
    16 C       13.8911  -3.0252  16.6062   C.ar      1 RES1  11.6948
    17 N       12.5769  -3.2921  16.4602   N.ar      1 RES1   6.3366
    18 C       13.0544  -4.3033  19.9437   C.3       1 RES1  16.2162
    19 Cl      10.8362  -7.6041  20.9050   Cl        1 RES1   8.5338
    20 H1       8.9598  -7.8505  23.3602   H         1 RES1   0.0000
    21 H2       8.5780  -5.7027  24.6117   H         1 RES1   0.0000
    22 H3      10.6651  -1.5295  23.3278   H         1 RES1   0.0000
    23 H4      11.2869  -6.0949  18.8666   H         1 RES1   0.0000
    24 H5       9.8003  -5.3811  19.5644   H         1 RES1   0.0000
    25 H6      10.0752  -3.3453  18.1946   H         1 RES1   0.0000
    26 H7      10.2283  -4.7609  17.0912   H         1 RES1   0.0000
    27 H8      14.5479  -2.6206  15.8444   H         1 RES1   0.0000
    28 H9      12.0922  -3.1614  15.7010   H         1 RES1   0.0000
    29 H10     13.5936  -5.2572  20.0407   H         1 RES1   0.0000
    30 H11     13.4902  -3.5707  20.6384   H         1 RES1   0.0000
    31 ****     9.2781  -3.0838  24.5044   Du        1 RES1   7.5254
    32 ****    11.8057  -2.3018  21.4028   Du        1 RES1  12.5843
    33 ****    15.1639  -3.2589  18.2589   Du        1 RES1  13.3506
@<TRIPOS>BOND
     1     1     2   ar
     2     2     3   ar
     3     3     4   ar
     4     4     5   ar
     5     1     5   ar
     6     4     6   ar
     7     6     7   ar
     8     7     8   ar
     9     8     9   ar
    10     3     9   ar
    11     9    10    1
    12    10    11    1
    13    11    12    1
    14    12    13    1
    15    13    14   ar
    16    14    15   ar
    17    15    16   ar
    18    16    17   ar
    19    13    17   ar
    20    14    18    1
    21    10    18    1
    22     2    19    1
    23     1    20    1
    24     5    21    1
    25     7    22    1
    26    11    23    1
    27    11    24    1
    28    12    25    1
    29    12    26    1
    30    16    27    1
    31    17    28    1
    32    18    29    1
    33    18    30    1
    34     6    31    1
    35     8    32    1
    36    15    33    1
@<TRIPOS>SUBSTRUCTURE
     1 RES1        1 GROUP             0 ****  ****    0  
@<TRIPOS>MOLECULE
9.52369778935
    33    36     1     0     0
SMALL
USER_CHARGES
****
Generated from the CSD

@<TRIPOS>ATOM
     1 C        9.2615  -6.7859  23.1241   C.ar      1 RES1  19.9610
     2 C       10.1040  -6.4446  22.0645   C.ar      1 RES1  21.8919
     3 C       10.3535  -5.0745  22.1547   C.ar      1 RES1  17.7108
     4 C        9.7067  -4.6273  23.2989   C.ar      1 RES1  15.9521
     5 N        9.0475  -5.6665  23.8434   N.ar      1 RES1  10.5722
     6 N        9.8045  -3.3479  23.6984   N.ar      1 RES1  12.1768
     7 C       10.5977  -2.5178  22.9891   C.ar      1 RES1  11.5979
     8 N       11.2358  -2.9258  21.8692   N.ar      1 RES1  15.4558
     9 C       11.0783  -4.1723  21.3765   C.ar      1 RES1  16.3347
    10 N       11.6074  -4.5008  20.1767   N.pl3     1 RES1  17.0613
    11 C       10.7544  -5.0862  19.1465   C.3       1 RES1  17.8568
    12 C       10.6658  -4.1431  17.9241   C.3       1 RES1  11.5465
    13 C       12.0975  -3.7453  17.6029   C.ar      1 RES1  22.4165
    14 C       13.1583  -3.8301  18.4925   C.ar      1 RES1  18.1300
    15 N       14.2635  -3.3973  17.8579   N.ar      1 RES1  14.0235
    16 C       13.9186  -3.0465  16.6005   C.ar      1 RES1  11.6948
    17 N       12.5954  -3.2628  16.4523   N.ar      1 RES1   6.3366
    18 C       13.0350  -4.3272  19.9249   C.3       1 RES1  16.2162
    19 Cl      10.7322  -7.5597  20.8708   Cl        1 RES1   8.7756
    20 H1       8.8580  -7.7707  23.3309   H         1 RES1   0.0000
    21 H2       8.5360  -5.6204  24.5950   H         1 RES1   0.0000
    22 H3      10.7264  -1.4958  23.3262   H         1 RES1   0.0000
    23 H4      11.2021  -6.0405  18.8299   H         1 RES1   0.0000
    24 H5       9.7430  -5.2792  19.5357   H         1 RES1   0.0000
    25 H6      10.0935  -3.2409  18.1870   H         1 RES1   0.0000
    26 H7      10.1938  -4.6497  17.0689   H         1 RES1   0.0000
    27 H8      14.5900  -2.6587  15.8426   H         1 RES1   0.0000
    28 H9      12.1159  -3.1063  15.6946   H         1 RES1   0.0000
    29 H10     13.5384  -5.3014  20.0117   H         1 RES1   0.0000
    30 H11     13.4977  -3.6186  20.6270   H         1 RES1   0.0000
    31 ****     9.3033  -3.0200  24.4992   Du        1 RES1   7.5254
    32 ****    11.8404  -2.2870  21.3934   Du        1 RES1  12.5843
    33 ****    15.1819  -3.3446  18.2502   Du        1 RES1  13.3506
@<TRIPOS>BOND
     1     1     2   ar
     2     2     3   ar
     3     3     4   ar
     4     4     5   ar
     5     1     5   ar
     6     4     6   ar
     7     6     7   ar
     8     7     8   ar
     9     8     9   ar
    10     3     9   ar
    11     9    10    1
    12    10    11    1
    13    11    12    1
    14    12    13    1
    15    13    14   ar
    16    14    15   ar
    17    15    16   ar
    18    16    17   ar
    19    13    17   ar
    20    14    18    1
    21    10    18    1
    22     2    19    1
    23     1    20    1
    24     5    21    1
    25     7    22    1
    26    11    23    1
    27    11    24    1
    28    12    25    1
    29    12    26    1
    30    16    27    1
    31    17    28    1
    32    18    29    1
    33    18    30    1
    34     6    31    1
    35     8    32    1
    36    15    33    1
@<TRIPOS>SUBSTRUCTURE
     1 RES1        1 GROUP             0 ****  ****    0  
@<TRIPOS>MOLECULE
9.51563991162
    33    36     1     0     0
SMALL
USER_CHARGES
****
Generated from the CSD

@<TRIPOS>ATOM
     1 C        9.3454  -6.8570  23.1549   C.ar      1 RES1  19.9610
     2 C       10.1829  -6.5023  22.0957   C.ar      1 RES1  21.8919
     3 C       10.3908  -5.1245  22.1717   C.ar      1 RES1  17.7108
     4 C        9.7248  -4.6842  23.3076   C.ar      1 RES1  15.9521
     5 N        9.0942  -5.7366  23.8605   N.ar      1 RES1  10.5722
     6 N        9.7821  -3.3981  23.6931   N.ar      1 RES1  12.1768
     7 C       10.5538  -2.5525  22.9785   C.ar      1 RES1  11.5979
     8 N       11.2098  -2.9535  21.8664   N.ar      1 RES1  15.4558
     9 C       11.0924  -4.2096  21.3871   C.ar      1 RES1  16.3347
    10 N       11.6374  -4.5354  20.1936   N.pl3     1 RES1  17.0613
    11 C       10.8110  -5.1694  19.1706   C.3       1 RES1  17.8568
    12 C       10.6892  -4.2492  17.9336   C.3       1 RES1  11.5465
    13 C       12.1052  -3.8006  17.6097   C.ar      1 RES1  22.4165
    14 C       13.1659  -3.8302  18.5029   C.ar      1 RES1  18.1300
    15 N       14.2551  -3.3642  17.8644   N.ar      1 RES1  14.0235
    16 C       13.9004  -3.0464  16.6009   C.ar      1 RES1  11.6948
    17 N       12.5872  -3.3166  16.4530   N.ar      1 RES1   6.3366
    18 C       13.0579  -4.3099  19.9425   C.3       1 RES1  16.2162
    19 Cl      10.8506  -7.6113  20.9178   Cl        1 RES1   8.5338
    20 H1       8.9705  -7.8511  23.3708   H         1 RES1   0.0000
    21 H2       8.5775  -5.6975  24.6089   H         1 RES1   0.0000
    22 H3      10.6501  -1.5234  23.3047   H         1 RES1   0.0000
    23 H4      11.2966  -6.1101  18.8697   H         1 RES1   0.0000
    24 H5       9.8068  -5.3959  19.5603   H         1 RES1   0.0000
    25 H6      10.0812  -3.3662  18.1813   H         1 RES1   0.0000
    26 H7      10.2398  -4.7869  17.0852   H         1 RES1   0.0000
    27 H8      14.5583  -2.6442  15.8388   H         1 RES1   0.0000
    28 H9      12.1041  -3.1905  15.6919   H         1 RES1   0.0000
    29 H10     13.5987  -5.2622  20.0455   H         1 RES1   0.0000
    30 H11     13.4905  -3.5731  20.6347   H         1 RES1   0.0000
    31 ****     9.2671  -3.0765  24.4877   Du        1 RES1   7.5254
    32 ****    11.7976  -2.3023  21.3865   Du        1 RES1  12.5843
    33 ****    15.1696  -3.2696  18.2579   Du        1 RES1  13.3506
@<TRIPOS>BOND
     1     1     2   ar
     2     2     3   ar
     3     3     4   ar
     4     4     5   ar
     5     1     5   ar
     6     4     6   ar
     7     6     7   ar
     8     7     8   ar
     9     8     9   ar
    10     3     9   ar
    11     9    10    1
    12    10    11    1
    13    11    12    1
    14    12    13    1
    15    13    14   ar
    16    14    15   ar
    17    15    16   ar
    18    16    17   ar
    19    13    17   ar
    20    14    18    1
    21    10    18    1
    22     2    19    1
    23     1    20    1
    24     5    21    1
    25     7    22    1
    26    11    23    1
    27    11    24    1
    28    12    25    1
    29    12    26    1
    30    16    27    1
    31    17    28    1
    32    18    29    1
    33    18    30    1
    34     6    31    1
    35     8    32    1
    36    15    33    1
@<TRIPOS>SUBSTRUCTURE
     1 RES1        1 GROUP             0 ****  ****    0  
