@<TRIPOS>MOLECULE
A:ATP381
    43    45     1     0     0
SMALL
USER_CHARGES
****
Generated from the CSD

@<TRIPOS>ATOM
     1 PG      99.2816  93.4949  85.1457   P.3       1 ATP381   0.0000
     2 O1G     99.0552  92.1621  85.6870   O.co2     1 ATP381  -1.0000
     3 O2G    100.6820  93.7874  84.7428   O.co2     1 ATP381  -1.0000
     4 O3G     98.9188  94.4532  86.2642   O.co2     1 ATP381  -1.0000
     5 PB      98.4512  94.8957  82.7847   P.3       1 ATP381   0.0000
     6 O1B     99.8315  94.9085  82.2562   O.co2     1 ATP381  -1.0000
     7 O2B     97.3646  94.8341  81.8165   O.co2     1 ATP381  -1.0000
     8 O3B     98.2956  93.8320  83.9605   O.3       1 ATP381   0.0000
     9 PA      99.4753  97.2805  84.0457   P.3       1 ATP381   0.0000
    10 O1A     98.8256  98.0701  85.1592   O.co2     1 ATP381  -1.0000
    11 O2A    100.7863  96.7444  84.3030   O.co2     1 ATP381  -1.0000
    12 O3A     98.3066  96.1801  83.7397   O.3       1 ATP381   0.0000
    13 O5'     99.5175  98.2237  82.7648   O.3       1 ATP381   0.0000
    14 C5'     98.4686  99.1911  82.5655   C.3       1 ATP381   0.0000
    15 C4'     98.6455  99.5890  81.0941   C.3       1 ATP381   0.0000
    16 O4'     99.7647 100.4741  80.9666   O.3       1 ATP381   0.0000
    17 C3'     98.9699  98.3597  80.2380   C.3       1 ATP381   0.0000
    18 O3'     98.3641  98.5512  78.9456   O.3       1 ATP381   0.0000
    19 C2'    100.5272  98.4449  80.0734   C.3       1 ATP381   0.0000
    20 O2'    100.7867  98.0379  78.7050   O.3       1 ATP381   0.0000
    21 C1'    100.7546  99.9712  80.1239   C.3       1 ATP381   0.0000
    22 N9     102.0305 100.3244  80.7388   N.pl3     1 ATP381   0.0000
    23 C8     102.5676  99.5971  81.7450   C.2       1 ATP381   0.0000
    24 N7     103.8088  99.7706  81.9172   N.2       1 ATP381   0.0000
    25 C5     104.1858 100.6436  81.0063   C.ar      1 ATP381   0.0000
    26 C6     105.4403 101.2106  80.7631   C.ar      1 ATP381   0.0000
    27 N6     106.5844 100.9906  81.3862   N.pl3     1 ATP381   0.0000
    28 N1     105.4738 102.0982  79.7443   N.ar      1 ATP381   0.0000
    29 C2     104.3326 102.4161  79.0840   C.ar      1 ATP381   0.0000
    30 N3     103.1349 101.9098  79.2338   N.ar      1 ATP381   0.0000
    31 C4     103.1067 101.0381  80.2496   C.ar      1 ATP381   0.0000
    32 H1      98.5979 100.0502  83.2221   H         1 ATP381   0.0000
    33 H2      97.4888  98.7477  82.7366   H         1 ATP381   0.0000
    34 H3      97.7420 100.0731  80.7263   H         1 ATP381   0.0000
    35 H4      98.6535  97.4309  80.7103   H         1 ATP381   0.0000
    36 H5      98.7337  99.3713  78.5250   H         1 ATP381   0.0000
    37 H6     101.0871  97.8844  80.8205   H         1 ATP381   0.0000
    38 H7     100.3193  98.6539  78.0821   H         1 ATP381   0.0000
    39 H8     100.6721 100.4066  79.1291   H         1 ATP381   0.0000
    40 H9     101.9785  98.9165  82.3579   H         1 ATP381   0.0000
    41 H10    107.4235 101.4819  81.0951   H         1 ATP381   0.0000
    42 H11    106.6243 100.3302  82.1560   H         1 ATP381   0.0000
    43 H12    104.4249 103.1959  78.3295   H         1 ATP381   0.0000
@<TRIPOS>BOND
     1     1     2   ar
     2     1     3   ar
     3     1     4   ar
     4     1     8    1
     5     5     6   ar
     6     5     7   ar
     7     5     8    1
     8     5    12    1
     9     9    10   ar
    10     9    11   ar
    11     9    12    1
    12     9    13    1
    13    13    14    1
    14    14    15    1
    15    15    16    1
    16    15    17    1
    17    16    21    1
    18    17    18    1
    19    17    19    1
    20    19    20    1
    21    19    21    1
    22    21    22    1
    23    22    23    1
    24    22    31    1
    25    23    24    2
    26    24    25    1
    27    25    26   ar
    28    25    31   ar
    29    26    27    1
    30    26    28   ar
    31    28    29   ar
    32    29    30   ar
    33    30    31   ar
    34    14    32    1
    35    14    33    1
    36    15    34    1
    37    17    35    1
    38    18    36    1
    39    19    37    1
    40    20    38    1
    41    21    39    1
    42    23    40    1
    43    27    41    1
    44    27    42    1
    45    29    43    1
@<TRIPOS>SUBSTRUCTURE
     1 ATP381      1 GROUP             0 A     ATP     0  
