ligprep_Molport_list.sdf:3|Molport_ligands|sdf|3|dock2
                    3D
 Schrodinger Suite 2020-2.
 30 33  0  0  1  0            999 V2000
   32.5167   -8.2059    0.6951 O   0  5  0  0  0  0
   33.4891   -8.3583    1.5225 C   0  0  0  0  0  0
   34.3478   -7.3301    1.7404 C   0  0  0  0  0  0
   35.4838   -7.3800    2.6534 C   0  0  0  0  0  0
   36.2431   -6.4333    2.8467 O   0  0  0  0  0  0
   35.6406   -8.5718    3.2890 N   0  0  0  0  0  0
   34.7977   -9.6666    3.1137 C   0  0  0  0  0  0
   33.7112   -9.6116    2.2465 C   0  0  0  0  0  0
   32.7921  -11.0999    2.1900 S   0  0  0  0  0  0
   33.8913  -11.8228    3.3583 C   0  0  0  0  0  0
   33.7530  -13.0743    3.7993 N   0  0  0  0  0  0
   34.6726  -13.5271    4.7003 C   0  0  0  0  0  0
   35.7163  -12.7157    5.1680 C   0  0  0  0  0  0
   35.8527  -11.4079    4.7027 C   0  0  0  0  0  0
   34.9225  -10.9267    3.7652 C   0  0  0  0  0  0
   34.4869  -14.9392    5.1767 C   0  0  0  0  0  0
   33.5122  -15.7696    4.6001 C   0  0  0  0  0  0
   33.3338  -17.0798    5.0366 C   0  0  0  0  0  0
   34.1299  -17.5800    6.0614 C   0  0  0  0  0  0
   35.1006  -16.7784    6.6525 C   0  0  0  0  0  0
   35.2749  -15.4688    6.2135 C   0  0  0  0  0  0
   34.1981   -6.3977    1.2134 H   0  0  0  0  0  0
   36.4248   -8.6204    3.9227 H   0  0  0  0  0  0
   36.4226  -13.0795    5.8989 H   0  0  0  0  0  0
   36.6563  -10.7813    5.0609 H   0  0  0  0  0  0
   32.8681  -15.4061    3.8139 H   0  0  0  0  0  0
   32.5776  -17.7039    4.5835 H   0  0  0  0  0  0
   33.9923  -18.5957    6.4018 H   0  0  0  0  0  0
   35.7169  -17.1700    7.4483 H   0  0  0  0  0  0
   36.0390  -14.8692    6.6863 H   0  0  0  0  0  0
  1  2  1  0  0  0
  2  3  2  0  0  0
  2  8  1  0  0  0
  3  4  1  0  0  0
  3 22  1  0  0  0
  4  5  2  0  0  0
  4  6  1  0  0  0
  6  7  1  0  0  0
  6 23  1  0  0  0
  7  8  2  0  0  0
  7 15  1  0  0  0
  8  9  1  0  0  0
  9 10  1  0  0  0
 10 11  2  0  0  0
 10 15  1  0  0  0
 11 12  1  0  0  0
 12 13  2  0  0  0
 12 16  1  0  0  0
 13 14  1  0  0  0
 13 24  1  0  0  0
 14 15  2  0  0  0
 14 25  1  0  0  0
 16 17  2  0  0  0
 16 21  1  0  0  0
 17 18  1  0  0  0
 17 26  1  0  0  0
 18 19  2  0  0  0
 18 27  1  0  0  0
 19 20  1  0  0  0
 19 28  1  0  0  0
 20 21  2  0  0  0
 20 29  1  0  0  0
 21 30  1  0  0  0
M  CHG  1   1  -1
M  END
> <Gold.Chemscore.Fitness>
46.5887

> <Gold.Version>
5.8.1

> <Gold.Chemscore.DG>
-46.4754

> <Gold.Chemscore.Hbond.Weighted>
-3.312

> <Gold.Chemscore.Lipo.Weighted>
-37.6834

> <Gold.Chemscore.Internal_Hbond.Weighted>
0

> <Gold.Chemscore.DEClash.Weighted>
7.9044

> <Gold.Chemscore.DEInternal.Weighted>
0.0196

> <Gold.Chemscore.Internal.Correction.Weighted>
0.0001

> <Gold.Chemscore.Constraint>
-8.0372

> <Gold.ChemScore.Ligand.Score.Contributions>
AtomID ChemScore.Hbond ChemScore.Metal ChemScore.Lipo ChemScore.DEClash ChemScore.total
1         0.99     0.00     0.00     0.13     3.18
2         0.00     0.00     9.80     0.00     1.15
3         0.00     0.00     6.38     0.00     0.75
7         0.00     0.00    13.86     0.00     1.62
8         0.00     0.00    14.27     0.00     1.67
9         0.00     0.00    17.97     2.88    -0.78
10        0.00     0.00    20.49     0.07     2.32
11        0.00     0.00     0.00     0.04    -0.04
12        0.00     0.00    22.52     0.00     2.63
13        0.00     0.00    19.48     0.00     2.28
14        0.00     0.00    16.49     0.00     1.93
15        0.00     0.00    17.00     0.00     1.99
16        0.00     0.00    24.60     0.03     2.85
17        0.00     0.00    27.88     0.04     3.22
18        0.00     0.00    30.90     0.12     3.50
19        0.00     0.00    29.74     3.16     0.32
20        0.00     0.00    25.99     1.43     1.62
21        0.00     0.00    23.94     0.00     2.80

> <gold pose ID>
ligprep_Molport_list.sdf:3|Molport_ligands|sdf|3|dock2

$$$$
ligprep_Molport_list.sdf:4|Molport_ligands|sdf|4|dock7
                    3D
 Schrodinger Suite 2020-2.
 37 41  0  0  1  0            999 V2000
   32.5705   -8.5672    1.4027 O   0  5  0  0  0  0
   33.5995   -8.8511    2.1195 C   0  0  0  0  0  0
   34.5639   -7.9141    2.3019 C   0  0  0  0  0  0
   35.7729   -8.1153    3.0905 C   0  0  0  0  0  0
   36.6361   -7.2549    3.2468 O   0  0  0  0  0  0
   35.8754   -9.3492    3.6506 N   0  0  0  0  0  0
   34.9270  -10.3606    3.5075 C   0  0  0  0  0  0
   33.7748  -10.1598    2.7536 C   0  0  0  0  0  0
   32.7230  -11.5545    2.7064 S   0  0  0  0  0  0
   33.8510  -12.4397    3.7240 C   0  0  0  0  0  0
   33.6252  -13.6976    4.1033 N   0  0  0  0  0  0
   34.5686  -14.2813    4.8903 C   0  0  0  0  0  0
   35.7296  -13.6185    5.2980 C   0  0  0  0  0  0
   35.9675  -12.2992    4.9009 C   0  0  0  0  0  0
   37.1994  -11.6033    5.3356 C   0  0  0  0  0  0
   38.1693  -11.2406    4.3966 C   0  0  0  0  0  0
   39.3173  -10.5647    4.8012 C   0  0  0  0  0  0
   39.4966  -10.2530    6.1469 C   0  0  0  0  0  0
   40.6102   -9.5946    6.5404 F   0  0  0  0  0  0
   38.5377  -10.6142    7.0907 C   0  0  0  0  0  0
   37.3901  -11.2901    6.6844 C   0  0  0  0  0  0
   35.0002  -11.6693    4.0813 C   0  0  0  0  0  0
   34.3053  -15.6989    5.3118 C   0  0  0  0  0  0
   34.7515  -16.3726    6.4522 C   0  0  0  0  0  0
   34.3167  -17.6991    6.5354 C   0  0  0  0  0  0
   33.5278  -18.0696    5.4604 C   0  0  0  0  0  0
   33.3201  -16.7696    4.3361 S   0  0  0  0  0  0
   34.4495   -6.9428    1.8401 H   0  0  0  0  0  0
   36.7088   -9.5015    4.1997 H   0  0  0  0  0  0
   36.4548  -14.1183    5.9235 H   0  0  0  0  0  0
   38.0296  -11.4759    3.3512 H   0  0  0  0  0  0
   40.0639  -10.2812    4.0741 H   0  0  0  0  0  0
   38.6819  -10.3690    8.1325 H   0  0  0  0  0  0
   36.6449  -11.5637    7.4174 H   0  0  0  0  0  0
   35.3762  -15.9209    7.2080 H   0  0  0  0  0  0
   34.5692  -18.3621    7.3499 H   0  0  0  0  0  0
   33.0662  -19.0290    5.2785 H   0  0  0  0  0  0
  1  2  1  0  0  0
  2  3  2  0  0  0
  2  8  1  0  0  0
  3  4  1  0  0  0
  3 28  1  0  0  0
  4  5  2  0  0  0
  4  6  1  0  0  0
  6  7  1  0  0  0
  6 29  1  0  0  0
  7  8  2  0  0  0
  7 22  1  0  0  0
  8  9  1  0  0  0
  9 10  1  0  0  0
 10 11  2  0  0  0
 10 22  1  0  0  0
 11 12  1  0  0  0
 12 13  2  0  0  0
 12 23  1  0  0  0
 13 14  1  0  0  0
 13 30  1  0  0  0
 14 15  1  0  0  0
 14 22  2  0  0  0
 15 16  2  0  0  0
 15 21  1  0  0  0
 16 17  1  0  0  0
 16 31  1  0  0  0
 17 18  2  0  0  0
 17 32  1  0  0  0
 18 19  1  0  0  0
 18 20  1  0  0  0
 20 21  2  0  0  0
 20 33  1  0  0  0
 21 34  1  0  0  0
 23 24  2  0  0  0
 23 27  1  0  0  0
 24 25  1  0  0  0
 24 35  1  0  0  0
 25 26  2  0  0  0
 25 36  1  0  0  0
 26 27  1  0  0  0
 26 37  1  0  0  0
M  CHG  1   1  -1
M  END
> <Gold.Chemscore.Fitness>
52.0663

> <Gold.Version>
5.8.1

> <Gold.Chemscore.DG>
-53.2491

> <Gold.Chemscore.Hbond.Weighted>
-3.338

> <Gold.Chemscore.Lipo.Weighted>
-44.4311

> <Gold.Chemscore.Internal_Hbond.Weighted>
0

> <Gold.Chemscore.DEClash.Weighted>
8.3319

> <Gold.Chemscore.DEInternal.Weighted>
0.9993

> <Gold.Chemscore.Internal.Correction.Weighted>
1.3051

> <Gold.Chemscore.Constraint>
-8.1484

> <Gold.ChemScore.Ligand.Score.Contributions>
AtomID ChemScore.Hbond ChemScore.Metal ChemScore.Lipo ChemScore.DEClash ChemScore.total
1         1.00     0.00     0.00     0.03     3.31
2         0.00     0.00    12.19     0.00     1.43
3         0.00     0.00     8.87     0.00     1.04
7         0.00     0.00    15.47     0.00     1.81
8         0.00     0.00    16.34     0.00     1.91
9         0.00     0.00    20.16     0.15     2.21
10        0.00     0.00    22.20     0.00     2.60
12        0.00     0.00    23.64     0.00     2.77
13        0.00     0.00    20.55     0.00     2.40
14        0.00     0.00    18.16     0.00     2.12
15        0.00     0.00    14.48     0.00     1.69
16        0.00     0.00    10.76     0.00     1.26
17        0.00     0.00     7.39     0.00     0.87
18        0.00     0.00     6.92     0.00     0.81
20        0.00     0.00     9.83     0.00     1.15
21        0.00     0.00    13.14     0.02     1.52
22        0.00     0.00    18.79     0.00     2.20
23        0.00     0.00    26.92     0.00     3.15
24        0.00     0.00    26.26     0.00     3.07
25        0.00     0.00    28.48     4.14    -0.81
26        0.00     0.00    30.96     3.36     0.27
27        0.00     0.00    29.88     0.64     2.86

> <gold pose ID>
ligprep_Molport_list.sdf:4|Molport_ligands|sdf|4|dock7

$$$$
ligprep_Molport_list.sdf:4|Molport_ligands|sdf|4|dock4
                    3D
 Schrodinger Suite 2020-2.
 37 41  0  0  1  0            999 V2000
   32.5079   -8.5665    1.1470 O   0  5  0  0  0  0
   33.5333   -8.8090    1.8839 C   0  0  0  0  0  0
   34.4860   -7.8548    2.0353 C   0  0  0  0  0  0
   35.6899   -8.0098    2.8420 C   0  0  0  0  0  0
   36.5426   -7.1342    2.9697 O   0  0  0  0  0  0
   35.8002   -9.2180    3.4541 N   0  0  0  0  0  0
   34.8639  -10.2448    3.3451 C   0  0  0  0  0  0
   33.7165  -10.0882    2.5736 C   0  0  0  0  0  0
   32.6799  -11.4949    2.5757 S   0  0  0  0  0  0
   33.8079  -12.3246    3.6391 C   0  0  0  0  0  0
   33.5919  -13.5681    4.0686 N   0  0  0  0  0  0
   34.5342  -14.1081    4.8875 C   0  0  0  0  0  0
   35.6844  -13.4163    5.2771 C   0  0  0  0  0  0
   35.9121  -12.1122    4.8273 C   0  0  0  0  0  0
   37.1326  -11.3854    5.2432 C   0  0  0  0  0  0
   37.7853  -10.5374    4.3438 C   0  0  0  0  0  0
   38.9197   -9.8348    4.7414 C   0  0  0  0  0  0
   39.4031   -9.9820    6.0395 C   0  0  0  0  0  0
   40.5034   -9.2983    6.4270 F   0  0  0  0  0  0
   38.7620  -10.8282    6.9415 C   0  0  0  0  0  0
   37.6276  -11.5301    6.5423 C   0  0  0  0  0  0
   34.9456  -11.5275    3.9738 C   0  0  0  0  0  0
   34.2820  -15.5097    5.3656 C   0  0  0  0  0  0
   33.3627  -16.4478    4.8877 C   0  0  0  0  0  0
   33.3908  -17.6690    5.5685 C   0  0  0  0  0  0
   34.3325  -17.6923    6.5824 C   0  0  0  0  0  0
   35.1918  -16.1937    6.6973 S   0  0  0  0  0  0
   34.3656   -6.9049    1.5324 H   0  0  0  0  0  0
   36.6302   -9.3383    4.0162 H   0  0  0  0  0  0
   36.4092  -13.8816    5.9292 H   0  0  0  0  0  0
   37.4086  -10.4167    3.3382 H   0  0  0  0  0  0
   39.4206   -9.1766    4.0469 H   0  0  0  0  0  0
   39.1410  -10.9376    7.9467 H   0  0  0  0  0  0
   37.1285  -12.1810    7.2456 H   0  0  0  0  0  0
   32.6864  -16.2589    4.0677 H   0  0  0  0  0  0
   32.7475  -18.5030    5.3291 H   0  0  0  0  0  0
   34.5586  -18.5054    7.2564 H   0  0  0  0  0  0
  1  2  1  0  0  0
  2  3  2  0  0  0
  2  8  1  0  0  0
  3  4  1  0  0  0
  3 28  1  0  0  0
  4  5  2  0  0  0
  4  6  1  0  0  0
  6  7  1  0  0  0
  6 29  1  0  0  0
  7  8  2  0  0  0
  7 22  1  0  0  0
  8  9  1  0  0  0
  9 10  1  0  0  0
 10 11  2  0  0  0
 10 22  1  0  0  0
 11 12  1  0  0  0
 12 13  2  0  0  0
 12 23  1  0  0  0
 13 14  1  0  0  0
 13 30  1  0  0  0
 14 15  1  0  0  0
 14 22  2  0  0  0
 15 16  2  0  0  0
 15 21  1  0  0  0
 16 17  1  0  0  0
 16 31  1  0  0  0
 17 18  2  0  0  0
 17 32  1  0  0  0
 18 19  1  0  0  0
 18 20  1  0  0  0
 20 21  2  0  0  0
 20 33  1  0  0  0
 21 34  1  0  0  0
 23 24  2  0  0  0
 23 27  1  0  0  0
 24 25  1  0  0  0
 24 35  1  0  0  0
 25 26  2  0  0  0
 25 36  1  0  0  0
 26 27  1  0  0  0
 26 37  1  0  0  0
M  CHG  1   1  -1
M  END
> <Gold.Chemscore.Fitness>
52.0565

> <Gold.Version>
5.8.1

> <Gold.Chemscore.DG>
-52.5089

> <Gold.Chemscore.Hbond.Weighted>
-3.3399

> <Gold.Chemscore.Lipo.Weighted>
-43.6889

> <Gold.Chemscore.Internal_Hbond.Weighted>
0

> <Gold.Chemscore.DEClash.Weighted>
7.6431

> <Gold.Chemscore.DEInternal.Weighted>
1.0609

> <Gold.Chemscore.Internal.Correction.Weighted>
1.3051

> <Gold.Chemscore.Constraint>
-8.2516

> <Gold.ChemScore.Ligand.Score.Contributions>
AtomID ChemScore.Hbond ChemScore.Metal ChemScore.Lipo ChemScore.DEClash ChemScore.total
1         1.00     0.00     0.00     0.06     3.28
2         0.00     0.00    11.64     0.00     1.36
3         0.00     0.00     8.22     0.00     0.96
7         0.00     0.00    15.20     0.00     1.78
8         0.00     0.00    15.96     0.00     1.87
9         0.00     0.00    19.83     0.47     1.85
10        0.00     0.00    22.01     0.03     2.55
11        0.00     0.00     0.00     0.00    -0.00
12        0.00     0.00    23.47     0.00     2.75
13        0.00     0.00    20.40     0.00     2.39
14        0.00     0.00    17.96     0.00     2.10
15        0.00     0.00    13.97     0.00     1.63
16        0.00     0.00     9.98     0.00     1.17
17        0.00     0.00     6.61     0.00     0.77
18        0.00     0.00     6.61     0.00     0.77
20        0.00     0.00     9.84     0.00     1.15
21        0.00     0.00    13.33     0.00     1.56
22        0.00     0.00    18.60     0.00     2.18
23        0.00     0.00    26.58     0.00     3.11
24        0.00     0.00    29.67     0.33     3.14
25        0.00     0.00    31.28     2.13     1.53
26        0.00     0.00    28.25     4.14    -0.84
27        0.00     0.00    24.92     0.48     2.44

> <gold pose ID>
ligprep_Molport_list.sdf:4|Molport_ligands|sdf|4|dock4

$$$$
ligprep_Molport_list.sdf:4|Molport_ligands|sdf|4|dock9
                    3D
 Schrodinger Suite 2020-2.
 37 41  0  0  1  0            999 V2000
   32.5468   -8.5337    1.4152 O   0  5  0  0  0  0
   33.5919   -8.8726    2.0832 C   0  0  0  0  0  0
   34.6203   -7.9955    2.2024 C   0  0  0  0  0  0
   35.8537   -8.2623    2.9316 C   0  0  0  0  0  0
   36.7752   -7.4556    3.0310 O   0  0  0  0  0  0
   35.9085   -9.4934    3.5045 N   0  0  0  0  0  0
   34.8934  -10.4453    3.4249 C   0  0  0  0  0  0
   33.7185  -10.1821    2.7273 C   0  0  0  0  0  0
   32.5816  -11.5089    2.7546 S   0  0  0  0  0  0
   33.7037  -12.4505    3.7271 C   0  0  0  0  0  0
   33.4206  -13.6873    4.1363 N   0  0  0  0  0  0
   34.3654  -14.3192    4.8832 C   0  0  0  0  0  0
   35.5846  -13.7253    5.2215 C   0  0  0  0  0  0
   35.8827  -12.4283    4.7930 C   0  0  0  0  0  0
   37.1759  -11.8054    5.1542 C   0  0  0  0  0  0
   37.4356  -11.4450    6.4796 C   0  0  0  0  0  0
   38.6609  -10.8810    6.8246 C   0  0  0  0  0  0
   39.6270  -10.6753    5.8424 C   0  0  0  0  0  0
   40.8181  -10.1297    6.1770 F   0  0  0  0  0  0
   39.3757  -11.0271    4.5181 C   0  0  0  0  0  0
   38.1498  -11.5910    4.1748 C   0  0  0  0  0  0
   34.9152  -11.7490    4.0140 C   0  0  0  0  0  0
   34.0373  -15.7125    5.3390 C   0  0  0  0  0  0
   33.3033  -16.7018    4.6785 C   0  0  0  0  0  0
   33.1869  -17.8969    5.3951 C   0  0  0  0  0  0
   33.8295  -17.8486    6.6198 C   0  0  0  0  0  0
   34.5848  -16.3144    6.8904 S   0  0  0  0  0  0
   34.5425   -7.0245    1.7323 H   0  0  0  0  0  0
   36.7581   -9.6909    4.0129 H   0  0  0  0  0  0
   36.3089  -14.2619    5.8170 H   0  0  0  0  0  0
   36.6901  -11.6093    7.2444 H   0  0  0  0  0  0
   38.8620  -10.6070    7.8497 H   0  0  0  0  0  0
   40.1290  -10.8659    3.7612 H   0  0  0  0  0  0
   37.9596  -11.8688    3.1480 H   0  0  0  0  0  0
   32.8609  -16.5676    3.7029 H   0  0  0  0  0  0
   32.6536  -18.7633    5.0322 H   0  0  0  0  0  0
   33.8942  -18.6288    7.3640 H   0  0  0  0  0  0
  1  2  1  0  0  0
  2  3  2  0  0  0
  2  8  1  0  0  0
  3  4  1  0  0  0
  3 28  1  0  0  0
  4  5  2  0  0  0
  4  6  1  0  0  0
  6  7  1  0  0  0
  6 29  1  0  0  0
  7  8  2  0  0  0
  7 22  1  0  0  0
  8  9  1  0  0  0
  9 10  1  0  0  0
 10 11  2  0  0  0
 10 22  1  0  0  0
 11 12  1  0  0  0
 12 13  2  0  0  0
 12 23  1  0  0  0
 13 14  1  0  0  0
 13 30  1  0  0  0
 14 15  1  0  0  0
 14 22  2  0  0  0
 15 16  2  0  0  0
 15 21  1  0  0  0
 16 17  1  0  0  0
 16 31  1  0  0  0
 17 18  2  0  0  0
 17 32  1  0  0  0
 18 19  1  0  0  0
 18 20  1  0  0  0
 20 21  2  0  0  0
 20 33  1  0  0  0
 21 34  1  0  0  0
 23 24  2  0  0  0
 23 27  1  0  0  0
 24 25  1  0  0  0
 24 35  1  0  0  0
 25 26  2  0  0  0
 25 36  1  0  0  0
 26 27  1  0  0  0
 26 37  1  0  0  0
M  CHG  1   1  -1
M  END
> <Gold.Chemscore.Fitness>
51.7596

> <Gold.Version>
5.8.1

> <Gold.Chemscore.DG>
-54.2156

> <Gold.Chemscore.Hbond.Weighted>
-3.3355

> <Gold.Chemscore.Lipo.Weighted>
-45.4001

> <Gold.Chemscore.Internal_Hbond.Weighted>
0

> <Gold.Chemscore.DEClash.Weighted>
10.2821

> <Gold.Chemscore.DEInternal.Weighted>
0.4919

> <Gold.Chemscore.Internal.Correction.Weighted>
1.3051

> <Gold.Chemscore.Constraint>
-8.318

> <Gold.ChemScore.Ligand.Score.Contributions>
AtomID ChemScore.Hbond ChemScore.Metal ChemScore.Lipo ChemScore.DEClash ChemScore.total
1         1.00     0.00     0.00     0.03     3.30
2         0.00     0.00    12.15     0.00     1.42
3         0.00     0.00     8.70     0.00     1.02
7         0.00     0.00    15.65     0.00     1.83
8         0.00     0.00    16.45     0.00     1.93
9         0.00     0.00    20.21     0.01     2.36
10        0.00     0.00    22.61     0.00     2.65
12        0.00     0.00    24.19     0.00     2.83
13        0.00     0.00    21.02     0.00     2.46
14        0.00     0.00    18.46     0.00     2.16
15        0.00     0.00    14.77     0.00     1.73
16        0.00     0.00    13.54     0.00     1.58
17        0.00     0.00    10.03     0.00     1.17
18        0.00     0.00     7.33     0.00     0.86
20        0.00     0.00     7.92     0.00     0.93
21        0.00     0.00    11.37     0.00     1.33
22        0.00     0.00    19.13     0.01     2.23
23        0.00     0.00    27.55     0.00     3.22
24        0.00     0.00    30.10     0.44     3.08
25        0.00     0.00    31.29     3.18     0.49
26        0.00     0.00    29.59     6.17    -2.71
27        0.00     0.00    25.83     0.45     2.57

> <gold pose ID>
ligprep_Molport_list.sdf:4|Molport_ligands|sdf|4|dock9

$$$$
ligprep_Molport_list.sdf:5|Molport_ligands|sdf|5|dock2
                    3D
 Schrodinger Suite 2020-2.
 30 33  0  0  1  0            999 V2000
   32.9191  -14.2566    4.0396 O   0  5  0  0  0  0
   33.4004  -13.0801    3.8452 C   0  0  0  0  0  0
   32.7211  -12.2016    3.0648 C   0  0  0  0  0  0
   33.1624  -10.8434    2.7703 C   0  0  0  0  0  0
   32.5346  -10.0635    2.0580 O   0  0  0  0  0  0
   34.3417  -10.4980    3.3526 N   0  0  0  0  0  0
   35.0897  -11.3478    4.1639 C   0  0  0  0  0  0
   34.6659  -12.6440    4.4394 C   0  0  0  0  0  0
   35.7643  -13.5275    5.4769 S   0  0  0  0  0  0
   36.8244  -12.1252    5.5500 C   0  0  0  0  0  0
   37.9628  -12.1177    6.2461 N   0  0  0  0  0  0
   38.6891  -10.9654    6.2278 C   0  0  0  0  0  0
   38.2914   -9.8324    5.5091 C   0  0  0  0  0  0
   37.1013   -9.8504    4.7823 C   0  0  0  0  0  0
   36.3267  -11.0244    4.7908 C   0  0  0  0  0  0
   39.9652  -10.9782    7.0040 C   0  0  0  0  0  0
   41.1749  -10.8152    6.3118 C   0  0  0  0  0  0
   42.3998  -10.8318    6.9776 C   0  0  0  0  0  0
   43.8685  -10.6390    6.0917 Cl  0  0  0  0  0  0
   42.4361  -11.0055    8.3583 C   0  0  0  0  0  0
   41.2479  -11.1538    9.0687 C   0  0  0  0  0  0
   40.0180  -11.1367    8.4065 C   0  0  0  0  0  0
   38.5892  -11.2688    9.3777 Cl  0  0  0  0  0  0
   31.7840  -12.5071    2.6193 H   0  0  0  0  0  0
   34.6583   -9.5595    3.1579 H   0  0  0  0  0  0
   38.8964   -8.9371    5.5162 H   0  0  0  0  0  0
   36.7849   -8.9790    4.2284 H   0  0  0  0  0  0
   41.1671  -10.6875    5.2387 H   0  0  0  0  0  0
   43.3812  -11.0195    8.8814 H   0  0  0  0  0  0
   41.2829  -11.2733   10.1418 H   0  0  0  0  0  0
  1  2  1  0  0  0
  2  3  2  0  0  0
  2  8  1  0  0  0
  3  4  1  0  0  0
  3 24  1  0  0  0
  4  5  2  0  0  0
  4  6  1  0  0  0
  6  7  1  0  0  0
  6 25  1  0  0  0
  7  8  2  0  0  0
  7 15  1  0  0  0
  8  9  1  0  0  0
  9 10  1  0  0  0
 10 11  2  0  0  0
 10 15  1  0  0  0
 11 12  1  0  0  0
 12 13  2  0  0  0
 12 16  1  0  0  0
 13 14  1  0  0  0
 13 26  1  0  0  0
 14 15  2  0  0  0
 14 27  1  0  0  0
 16 17  2  0  0  0
 16 22  1  0  0  0
 17 18  1  0  0  0
 17 28  1  0  0  0
 18 19  1  0  0  0
 18 20  2  0  0  0
 20 21  1  0  0  0
 20 29  1  0  0  0
 21 22  2  0  0  0
 21 30  1  0  0  0
 22 23  1  0  0  0
M  CHG  1   1  -1
M  END
> <Gold.Chemscore.Fitness>
42.2651

> <Gold.Version>
5.8.1

> <Gold.Chemscore.DG>
-34.3651

> <Gold.Chemscore.Hbond.Weighted>
-3.3384

> <Gold.Chemscore.Lipo.Weighted>
-25.5467

> <Gold.Chemscore.Internal_Hbond.Weighted>
0

> <Gold.Chemscore.DEClash.Weighted>
0.2223

> <Gold.Chemscore.DEInternal.Weighted>
0.4508

> <Gold.Chemscore.Internal.Correction.Weighted>
0.7416

> <Gold.Chemscore.Constraint>
-8.5732

> <Gold.ChemScore.Ligand.Score.Contributions>
AtomID ChemScore.Hbond ChemScore.Metal ChemScore.Lipo ChemScore.DEClash ChemScore.total
1         0.00     0.00     0.00     0.00    -0.00
2         0.00     0.00    23.78     0.00     2.78
3         0.00     0.00    22.23     0.01     2.59
4         0.00     0.00     0.00     0.04    -0.04
5         1.00     0.00     0.00     0.05     3.29
7         0.00     0.00    17.93     0.00     2.10
8         0.00     0.00    21.51     0.00     2.52
9         0.00     0.00    20.39     0.00     2.39
10        0.00     0.00    16.35     0.00     1.91
11        0.00     0.00     0.00     0.12    -0.12
12        0.00     0.00     9.90     0.00     1.16
13        0.00     0.00     7.67     0.00     0.90
14        0.00     0.00     9.91     0.00     1.16
15        0.00     0.00    14.52     0.00     1.70
16        0.00     0.00     7.70     0.00     0.90
17        0.00     0.00     5.25     0.00     0.61
18        0.00     0.00     4.02     0.00     0.47
19        0.00     0.00     3.44     0.00     0.40
20        0.00     0.00     4.43     0.00     0.52
21        0.00     0.00     6.55     0.00     0.77
22        0.00     0.00     8.86     0.00     1.04
23        0.00     0.00    13.44     0.00     1.57

> <gold pose ID>
ligprep_Molport_list.sdf:5|Molport_ligands|sdf|5|dock2

$$$$
ligprep_Molport_list.sdf:5|Molport_ligands|sdf|5|dock4
                    3D
 Schrodinger Suite 2020-2.
 30 33  0  0  1  0            999 V2000
   32.9184  -13.9746    4.2115 O   0  5  0  0  0  0
   33.4882  -12.8538    3.9419 C   0  0  0  0  0  0
   32.8727  -11.9751    3.1104 C   0  0  0  0  0  0
   33.4158  -10.6766    2.7298 C   0  0  0  0  0  0
   32.8445   -9.8958    1.9723 O   0  0  0  0  0  0
   34.6233  -10.3889    3.2850 N   0  0  0  0  0  0
   35.3099  -11.2424    4.1452 C   0  0  0  0  0  0
   34.7888  -12.4819    4.5029 C   0  0  0  0  0  0
   35.8240  -13.3824    5.5897 S   0  0  0  0  0  0
   36.9906  -12.0655    5.5709 C   0  0  0  0  0  0
   38.1321  -12.1038    6.2610 N   0  0  0  0  0  0
   38.9456  -11.0151    6.1678 C   0  0  0  0  0  0
   38.6312   -9.9014    5.3809 C   0  0  0  0  0  0
   37.4371   -9.8715    4.6611 C   0  0  0  0  0  0
   36.5736  -10.9784    4.7460 C   0  0  0  0  0  0
   40.2235  -11.0794    6.9386 C   0  0  0  0  0  0
   41.4327  -10.8883    6.2528 C   0  0  0  0  0  0
   42.6591  -10.9500    6.9133 C   0  0  0  0  0  0
   44.1270  -10.7206    6.0349 Cl  0  0  0  0  0  0
   42.6974  -11.1984    8.2825 C   0  0  0  0  0  0
   41.5097  -11.3759    8.9871 C   0  0  0  0  0  0
   40.2785  -11.3139    8.3303 C   0  0  0  0  0  0
   38.8511  -11.4876    9.2969 Cl  0  0  0  0  0  0
   31.9109  -12.2335    2.6884 H   0  0  0  0  0  0
   35.0104   -9.4920    3.0306 H   0  0  0  0  0  0
   39.3041   -9.0575    5.3297 H   0  0  0  0  0  0
   37.1848   -9.0141    4.0548 H   0  0  0  0  0  0
   41.4233  -10.7028    5.1882 H   0  0  0  0  0  0
   43.6436  -11.2477    8.8014 H   0  0  0  0  0  0
   41.5464  -11.5535   10.0522 H   0  0  0  0  0  0
  1  2  1  0  0  0
  2  3  2  0  0  0
  2  8  1  0  0  0
  3  4  1  0  0  0
  3 24  1  0  0  0
  4  5  2  0  0  0
  4  6  1  0  0  0
  6  7  1  0  0  0
  6 25  1  0  0  0
  7  8  2  0  0  0
  7 15  1  0  0  0
  8  9  1  0  0  0
  9 10  1  0  0  0
 10 11  2  0  0  0
 10 15  1  0  0  0
 11 12  1  0  0  0
 12 13  2  0  0  0
 12 16  1  0  0  0
 13 14  1  0  0  0
 13 26  1  0  0  0
 14 15  2  0  0  0
 14 27  1  0  0  0
 16 17  2  0  0  0
 16 22  1  0  0  0
 17 18  1  0  0  0
 17 28  1  0  0  0
 18 19  1  0  0  0
 18 20  2  0  0  0
 20 21  1  0  0  0
 20 29  1  0  0  0
 21 22  2  0  0  0
 21 30  1  0  0  0
 22 23  1  0  0  0
M  CHG  1   1  -1
M  END
> <Gold.Chemscore.Fitness>
41.124

> <Gold.Version>
5.8.1

> <Gold.Chemscore.DG>
-33.6709

> <Gold.Chemscore.Hbond.Weighted>
-3.3316

> <Gold.Chemscore.Lipo.Weighted>
-24.8593

> <Gold.Chemscore.Internal_Hbond.Weighted>
0

> <Gold.Chemscore.DEClash.Weighted>
0.7515

> <Gold.Chemscore.DEInternal.Weighted>
0.2717

> <Gold.Chemscore.Internal.Correction.Weighted>
0.7416

> <Gold.Chemscore.Constraint>
-8.4763

> <Gold.ChemScore.Ligand.Score.Contributions>
AtomID ChemScore.Hbond ChemScore.Metal ChemScore.Lipo ChemScore.DEClash ChemScore.total
1         0.00     0.00     0.00     0.60    -0.60
2         0.00     0.00    23.70     0.00     2.77
3         0.00     0.00    21.83     0.00     2.55
4         0.00     0.00     0.00     0.02    -0.02
5         1.00     0.00     0.00     0.01     3.32
7         0.00     0.00    17.17     0.00     2.01
8         0.00     0.00    21.09     0.00     2.47
9         0.00     0.00    20.09     0.00     2.35
10        0.00     0.00    15.81     0.00     1.85
11        0.00     0.00     0.00     0.04    -0.04
12        0.00     0.00     9.31     0.00     1.09
13        0.00     0.00     7.27     0.00     0.85
14        0.00     0.00     9.21     0.00     1.08
15        0.00     0.00    13.95     0.00     1.63
16        0.00     0.00     7.25     0.00     0.85
17        0.00     0.00     5.03     0.04     0.55
18        0.00     0.00     4.04     0.01     0.46
19        0.00     0.00     3.37     0.00     0.39
20        0.00     0.00     4.41     0.00     0.52
21        0.00     0.00     6.49     0.00     0.76
22        0.00     0.00     8.45     0.00     0.99
23        0.00     0.00    13.04     0.05     1.48

> <gold pose ID>
ligprep_Molport_list.sdf:5|Molport_ligands|sdf|5|dock4

$$$$
ligprep_Molport_list.sdf:5|Molport_ligands|sdf|5|dock1
                    3D
 Schrodinger Suite 2020-2.
 30 33  0  0  1  0            999 V2000
   33.1136  -14.9577    4.3621 O   0  5  0  0  0  0
   33.4103  -13.7301    4.1201 C   0  0  0  0  0  0
   32.5725  -12.9779    3.3622 C   0  0  0  0  0  0
   32.7983  -11.5787    3.0193 C   0  0  0  0  0  0
   32.0290  -10.9149    2.3283 O   0  0  0  0  0  0
   33.9442  -11.0539    3.5297 N   0  0  0  0  0  0
   34.8474  -11.7671    4.3142 C   0  0  0  0  0  0
   34.6290  -13.1029    4.6361 C   0  0  0  0  0  0
   35.8950  -13.7938    5.6277 S   0  0  0  0  0  0
   36.7450  -12.2533    5.6171 C   0  0  0  0  0  0
   37.9049  -12.0657    6.2495 N   0  0  0  0  0  0
   38.4562  -10.8225    6.1704 C   0  0  0  0  0  0
   37.8633   -9.7767    5.4540 C   0  0  0  0  0  0
   36.6522   -9.9829    4.7940 C   0  0  0  0  0  0
   36.0558  -11.2547    4.8663 C   0  0  0  0  0  0
   39.7593  -10.6332    6.8756 C   0  0  0  0  0  0
   39.8990  -11.1383    8.1773 C   0  0  0  0  0  0
   41.0853  -10.9816    8.8930 C   0  0  0  0  0  0
   41.2170  -11.6066   10.4964 Cl  0  0  0  0  0  0
   42.1628  -10.3186    8.3124 C   0  0  0  0  0  0
   42.0532   -9.8224    7.0161 C   0  0  0  0  0  0
   40.8673   -9.9778    6.2944 C   0  0  0  0  0  0
   40.8413   -9.3811    4.6680 Cl  0  0  0  0  0  0
   31.6673  -13.4252    2.9744 H   0  0  0  0  0  0
   34.1123  -10.0852    3.3009 H   0  0  0  0  0  0
   38.3330   -8.8045    5.4117 H   0  0  0  0  0  0
   36.1858   -9.1801    4.2425 H   0  0  0  0  0  0
   39.0704  -11.6483    8.6477 H   0  0  0  0  0  0
   43.0853  -10.1932    8.8604 H   0  0  0  0  0  0
   42.8985   -9.3221    6.5665 H   0  0  0  0  0  0
  1  2  1  0  0  0
  2  3  2  0  0  0
  2  8  1  0  0  0
  3  4  1  0  0  0
  3 24  1  0  0  0
  4  5  2  0  0  0
  4  6  1  0  0  0
  6  7  1  0  0  0
  6 25  1  0  0  0
  7  8  2  0  0  0
  7 15  1  0  0  0
  8  9  1  0  0  0
  9 10  1  0  0  0
 10 11  2  0  0  0
 10 15  1  0  0  0
 11 12  1  0  0  0
 12 13  2  0  0  0
 12 16  1  0  0  0
 13 14  1  0  0  0
 13 26  1  0  0  0
 14 15  2  0  0  0
 14 27  1  0  0  0
 16 17  2  0  0  0
 16 22  1  0  0  0
 17 18  1  0  0  0
 17 28  1  0  0  0
 18 19  1  0  0  0
 18 20  2  0  0  0
 20 21  1  0  0  0
 20 29  1  0  0  0
 21 22  2  0  0  0
 21 30  1  0  0  0
 22 23  1  0  0  0
M  CHG  1   1  -1
M  END
> <Gold.Chemscore.Fitness>
41.1104

> <Gold.Version>
5.8.1

> <Gold.Chemscore.DG>
-34.453

> <Gold.Chemscore.Hbond.Weighted>
-3.3123

> <Gold.Chemscore.Lipo.Weighted>
-25.6607

> <Gold.Chemscore.Internal_Hbond.Weighted>
0

> <Gold.Chemscore.DEClash.Weighted>
1.8102

> <Gold.Chemscore.DEInternal.Weighted>
0.0105

> <Gold.Chemscore.Internal.Correction.Weighted>
0.7416

> <Gold.Chemscore.Constraint>
-8.4781

> <Gold.ChemScore.Ligand.Score.Contributions>
AtomID ChemScore.Hbond ChemScore.Metal ChemScore.Lipo ChemScore.DEClash ChemScore.total
1         0.00     0.00     0.00     0.02    -0.02
2         0.00     0.00    24.86     0.00     2.91
3         0.00     0.00    24.32     0.00     2.85
5         0.99     0.00     0.00     1.38     1.93
7         0.00     0.00    19.65     0.00     2.30
8         0.00     0.00    22.19     0.00     2.60
9         0.00     0.00    20.36     0.00     2.38
10        0.00     0.00    16.74     0.00     1.96
12        0.00     0.00     9.95     0.00     1.16
13        0.00     0.00     8.29     0.00     0.97
14        0.00     0.00    11.03     0.38     0.91
15        0.00     0.00    15.56     0.00     1.82
16        0.00     0.00     7.49     0.00     0.88
17        0.00     0.00     8.94     0.00     1.05
18        0.00     0.00     6.41     0.00     0.75
19        0.00     0.00     7.29     0.03     0.82
20        0.00     0.00     3.71     0.00     0.43
21        0.00     0.00     2.84     0.00     0.33
22        0.00     0.00     4.53     0.00     0.53
23        0.00     0.00     3.41     0.00     0.40

> <gold pose ID>
ligprep_Molport_list.sdf:5|Molport_ligands|sdf|5|dock1

$$$$
ligprep_Molport_list.sdf:6|Molport_ligands|sdf|6|dock3
                    3D
 Schrodinger Suite 2020-2.
 30 33  0  0  1  0            999 V2000
   32.9667  -14.3023    4.0599 O   0  5  0  0  0  0
   33.4280  -13.1164    3.8739 C   0  0  0  0  0  0
   32.7333  -12.2436    3.1010 C   0  0  0  0  0  0
   33.1505  -10.8752    2.8185 C   0  0  0  0  0  0
   32.5034  -10.0967    2.1222 O   0  0  0  0  0  0
   34.3293  -10.5178    3.3945 N   0  0  0  0  0  0
   35.0919  -11.3608    4.1991 C   0  0  0  0  0  0
   34.6877  -12.6645    4.4690 C   0  0  0  0  0  0
   35.7999  -13.5369    5.5013 S   0  0  0  0  0  0
   36.8392  -12.1194    5.5817 C   0  0  0  0  0  0
   37.9777  -12.0989    6.2788 N   0  0  0  0  0  0
   38.6796  -10.9347    6.2543 C   0  0  0  0  0  0
   38.2705   -9.8008    5.5497 C   0  0  0  0  0  0
   37.0802   -9.8346    4.8235 C   0  0  0  0  0  0
   36.3241  -11.0216    4.8269 C   0  0  0  0  0  0
   39.9343  -10.9386    7.0398 C   0  0  0  0  0  0
   39.8901  -11.1060    8.4289 C   0  0  0  0  0  0
   41.0658  -11.1270    9.1798 C   0  0  0  0  0  0
   42.2994  -10.9851    8.5464 C   0  0  0  0  0  0
   43.4398  -11.0064    9.2726 F   0  0  0  0  0  0
   42.3562  -10.8241    7.1628 C   0  0  0  0  0  0
   41.1805  -10.8040    6.4110 C   0  0  0  0  0  0
   41.2575  -10.6519    5.0679 F   0  0  0  0  0  0
   31.8012  -12.5611    2.6536 H   0  0  0  0  0  0
   34.6308   -9.5732    3.2052 H   0  0  0  0  0  0
   38.8677   -8.9003    5.5649 H   0  0  0  0  0  0
   36.7495   -8.9657    4.2739 H   0  0  0  0  0  0
   38.9396  -11.2193    8.9301 H   0  0  0  0  0  0
   41.0199  -11.2546   10.2515 H   0  0  0  0  0  0
   43.3124  -10.7164    6.6722 H   0  0  0  0  0  0
  1  2  1  0  0  0
  2  3  2  0  0  0
  2  8  1  0  0  0
  3  4  1  0  0  0
  3 24  1  0  0  0
  4  5  2  0  0  0
  4  6  1  0  0  0
  6  7  1  0  0  0
  6 25  1  0  0  0
  7  8  2  0  0  0
  7 15  1  0  0  0
  8  9  1  0  0  0
  9 10  1  0  0  0
 10 11  2  0  0  0
 10 15  1  0  0  0
 11 12  1  0  0  0
 12 13  2  0  0  0
 12 16  1  0  0  0
 13 14  1  0  0  0
 13 26  1  0  0  0
 14 15  2  0  0  0
 14 27  1  0  0  0
 16 17  2  0  0  0
 16 22  1  0  0  0
 17 18  1  0  0  0
 17 28  1  0  0  0
 18 19  2  0  0  0
 18 29  1  0  0  0
 19 20  1  0  0  0
 19 21  1  0  0  0
 21 22  2  0  0  0
 21 30  1  0  0  0
 22 23  1  0  0  0
M  CHG  1   1  -1
M  END
> <Gold.Chemscore.Fitness>
41.0602

> <Gold.Version>
5.8.1

> <Gold.Chemscore.DG>
-32.6558

> <Gold.Chemscore.Hbond.Weighted>
-3.3393

> <Gold.Chemscore.Lipo.Weighted>
-23.8366

> <Gold.Chemscore.Internal_Hbond.Weighted>
0

> <Gold.Chemscore.DEClash.Weighted>
0.1284

> <Gold.Chemscore.DEInternal.Weighted>
0.0594

> <Gold.Chemscore.Internal.Correction.Weighted>
1.1579

> <Gold.Chemscore.Constraint>
-8.5922

> <Gold.ChemScore.Ligand.Score.Contributions>
AtomID ChemScore.Hbond ChemScore.Metal ChemScore.Lipo ChemScore.DEClash ChemScore.total
2         0.00     0.00    23.82     0.01     2.78
3         0.00     0.00    22.44     0.00     2.63
4         0.00     0.00     0.00     0.04    -0.04
5         1.00     0.00     0.00     0.00     3.33
7         0.00     0.00    17.97     0.00     2.10
8         0.00     0.00    21.49     0.00     2.51
9         0.00     0.00    20.27     0.00     2.37
10        0.00     0.00    16.32     0.00     1.91
12        0.00     0.00     9.79     0.00     1.15
13        0.00     0.00     7.60     0.00     0.89
14        0.00     0.00     9.86     0.07     1.08
15        0.00     0.00    14.58     0.00     1.71
16        0.00     0.00     7.78     0.00     0.91
17        0.00     0.00     9.18     0.00     1.07
18        0.00     0.00     6.85     0.00     0.80
19        0.00     0.00     4.62     0.00     0.54
21        0.00     0.00     4.05     0.00     0.47
22        0.00     0.00     5.20     0.00     0.61

> <gold pose ID>
ligprep_Molport_list.sdf:6|Molport_ligands|sdf|6|dock3

$$$$
ligprep_Molport_list.sdf:6|Molport_ligands|sdf|6|dock1
                    3D
 Schrodinger Suite 2020-2.
 30 33  0  0  1  0            999 V2000
   32.5106  -13.8676    3.8112 O   0  5  0  0  0  0
   33.0787  -12.7236    3.6623 C   0  0  0  0  0  0
   32.5145  -11.7996    2.8440 C   0  0  0  0  0  0
   33.0606  -10.4704    2.5962 C   0  0  0  0  0  0
   32.5305   -9.6440    1.8574 O   0  0  0  0  0  0
   34.2201  -10.2081    3.2565 N   0  0  0  0  0  0
   34.8520  -11.1079    4.1113 C   0  0  0  0  0  0
   34.3249  -12.3737    4.3477 C   0  0  0  0  0  0
   35.2856  -13.3304    5.4548 S   0  0  0  0  0  0
   36.4280  -12.0017    5.6138 C   0  0  0  0  0  0
   37.5113  -12.0716    6.3910 N   0  0  0  0  0  0
   38.3054  -10.9682    6.4204 C   0  0  0  0  0  0
   38.0413   -9.8069    5.6915 C   0  0  0  0  0  0
   36.9075   -9.7462    4.8815 C   0  0  0  0  0  0
   36.0592  -10.8679    4.8271 C   0  0  0  0  0  0
   39.4959  -11.0716    7.2940 C   0  0  0  0  0  0
   40.7772  -11.0991    6.7310 C   0  0  0  0  0  0
   41.9086  -11.1808    7.5432 C   0  0  0  0  0  0
   41.7688  -11.2313    8.9292 C   0  0  0  0  0  0
   42.8644  -11.3095    9.7178 F   0  0  0  0  0  0
   40.4981  -11.1983    9.5016 C   0  0  0  0  0  0
   39.3659  -11.1156    8.6896 C   0  0  0  0  0  0
   38.1411  -11.0793    9.2653 F   0  0  0  0  0  0
   31.5944  -12.0418    2.3298 H   0  0  0  0  0  0
   34.6100   -9.2917    3.0921 H   0  0  0  0  0  0
   38.7069   -8.9578    5.7522 H   0  0  0  0  0  0
   36.6887   -8.8549    4.3121 H   0  0  0  0  0  0
   40.8976  -11.0581    5.6580 H   0  0  0  0  0  0
   42.8925  -11.2036    7.0980 H   0  0  0  0  0  0
   40.3903  -11.2353   10.5756 H   0  0  0  0  0  0
  1  2  1  0  0  0
  2  3  2  0  0  0
  2  8  1  0  0  0
  3  4  1  0  0  0
  3 24  1  0  0  0
  4  5  2  0  0  0
  4  6  1  0  0  0
  6  7  1  0  0  0
  6 25  1  0  0  0
  7  8  2  0  0  0
  7 15  1  0  0  0
  8  9  1  0  0  0
  9 10  1  0  0  0
 10 11  2  0  0  0
 10 15  1  0  0  0
 11 12  1  0  0  0
 12 13  2  0  0  0
 12 16  1  0  0  0
 13 14  1  0  0  0
 13 26  1  0  0  0
 14 15  2  0  0  0
 14 27  1  0  0  0
 16 17  2  0  0  0
 16 22  1  0  0  0
 17 18  1  0  0  0
 17 28  1  0  0  0
 18 19  2  0  0  0
 18 29  1  0  0  0
 19 20  1  0  0  0
 19 21  1  0  0  0
 21 22  2  0  0  0
 21 30  1  0  0  0
 22 23  1  0  0  0
M  CHG  1   1  -1
M  END
> <Gold.Chemscore.Fitness>
41.0323

> <Gold.Version>
5.8.1

> <Gold.Chemscore.DG>
-33.5977

> <Gold.Chemscore.Hbond.Weighted>
-3.3074

> <Gold.Chemscore.Lipo.Weighted>
-24.8103

> <Gold.Chemscore.Internal_Hbond.Weighted>
0

> <Gold.Chemscore.DEClash.Weighted>
0.5077

> <Gold.Chemscore.DEInternal.Weighted>
0.1227

> <Gold.Chemscore.Internal.Correction.Weighted>
1.1753

> <Gold.Chemscore.Constraint>
-8.065

> <Gold.ChemScore.Ligand.Score.Contributions>
AtomID ChemScore.Hbond ChemScore.Metal ChemScore.Lipo ChemScore.DEClash ChemScore.total
1         0.00     0.00     0.00     0.05    -0.05
2         0.00     0.00    23.93     0.00     2.80
3         0.00     0.00    21.12     0.01     2.46
4         0.00     0.00     0.00     0.00    -0.00
5         0.99     0.00     0.00     0.00     3.31
7         0.00     0.00    17.84     0.00     2.09
8         0.00     0.00    21.92     0.00     2.56
9         0.00     0.00    21.30     0.01     2.49
10        0.00     0.00    16.86     0.00     1.97
11        0.00     0.00     0.00     0.36    -0.36
12        0.00     0.00    10.64     0.00     1.25
13        0.00     0.00     8.15     0.00     0.95
14        0.00     0.00    10.02     0.07     1.10
15        0.00     0.00    14.51     0.00     1.70
16        0.00     0.00     9.00     0.00     1.05
17        0.00     0.00     6.12     0.00     0.72
18        0.00     0.00     5.04     0.00     0.59
19        0.00     0.00     5.82     0.00     0.68
21        0.00     0.00     8.49     0.00     0.99
22        0.00     0.00    10.64     0.00     1.24

> <gold pose ID>
ligprep_Molport_list.sdf:6|Molport_ligands|sdf|6|dock1

$$$$
ligprep_Molport_list.sdf:6|Molport_ligands|sdf|6|dock10
                    3D
 Schrodinger Suite 2020-2.
 30 33  0  0  1  0            999 V2000
   33.1680  -14.4529    4.1592 O   0  5  0  0  0  0
   33.6175  -13.2611    3.9825 C   0  0  0  0  0  0
   32.8973  -12.3787    3.2445 C   0  0  0  0  0  0
   33.2991  -11.0030    2.9758 C   0  0  0  0  0  0
   32.6290  -10.2160    2.3115 O   0  0  0  0  0  0
   34.4911  -10.6488    3.5263 N   0  0  0  0  0  0
   35.2798  -11.5016    4.2946 C   0  0  0  0  0  0
   34.8903  -12.8124    4.5515 C   0  0  0  0  0  0
   36.0349  -13.6965    5.5375 S   0  0  0  0  0  0
   37.0680  -12.2744    5.6156 C   0  0  0  0  0  0
   38.2248  -12.2596    6.2820 N   0  0  0  0  0  0
   38.9194  -11.0909    6.2598 C   0  0  0  0  0  0
   38.4850   -9.9469    5.5873 C   0  0  0  0  0  0
   37.2757   -9.9749    4.8928 C   0  0  0  0  0  0
   36.5266  -11.1663    4.8950 C   0  0  0  0  0  0
   40.1948  -11.1013    7.0110 C   0  0  0  0  0  0
   40.1936  -11.3471    8.3892 C   0  0  0  0  0  0
   41.3897  -11.3750    9.1069 C   0  0  0  0  0  0
   42.6009  -11.1615    8.4508 C   0  0  0  0  0  0
   43.7610  -11.1894    9.1448 F   0  0  0  0  0  0
   42.6150  -10.9220    7.0775 C   0  0  0  0  0  0
   41.4189  -10.8949    6.3587 C   0  0  0  0  0  0
   41.4546  -10.6660    5.0248 F   0  0  0  0  0  0
   31.9553  -12.6938    2.8167 H   0  0  0  0  0  0
   34.7820   -9.6992    3.3461 H   0  0  0  0  0  0
   39.0773   -9.0433    5.6027 H   0  0  0  0  0  0
   36.9254   -9.0982    4.3682 H   0  0  0  0  0  0
   39.2609  -11.5163    8.9077 H   0  0  0  0  0  0
   41.3770  -11.5635   10.1705 H   0  0  0  0  0  0
   43.5539  -10.7588    6.5691 H   0  0  0  0  0  0
  1  2  1  0  0  0
  2  3  2  0  0  0
  2  8  1  0  0  0
  3  4  1  0  0  0
  3 24  1  0  0  0
  4  5  2  0  0  0
  4  6  1  0  0  0
  6  7  1  0  0  0
  6 25  1  0  0  0
  7  8  2  0  0  0
  7 15  1  0  0  0
  8  9  1  0  0  0
  9 10  1  0  0  0
 10 11  2  0  0  0
 10 15  1  0  0  0
 11 12  1  0  0  0
 12 13  2  0  0  0
 12 16  1  0  0  0
 13 14  1  0  0  0
 13 26  1  0  0  0
 14 15  2  0  0  0
 14 27  1  0  0  0
 16 17  2  0  0  0
 16 22  1  0  0  0
 17 18  1  0  0  0
 17 28  1  0  0  0
 18 19  2  0  0  0
 18 29  1  0  0  0
 19 20  1  0  0  0
 19 21  1  0  0  0
 21 22  2  0  0  0
 21 30  1  0  0  0
 22 23  1  0  0  0
M  CHG  1   1  -1
M  END
> <Gold.Chemscore.Fitness>
40.8794

> <Gold.Version>
5.8.1

> <Gold.Chemscore.DG>
-32.3116

> <Gold.Chemscore.Hbond.Weighted>
-3.3286

> <Gold.Chemscore.Lipo.Weighted>
-23.503

> <Gold.Chemscore.Internal_Hbond.Weighted>
0

> <Gold.Chemscore.DEClash.Weighted>
0.0901

> <Gold.Chemscore.DEInternal.Weighted>
0.0088

> <Gold.Chemscore.Internal.Correction.Weighted>
1.1535

> <Gold.Chemscore.Constraint>
-8.6667

> <Gold.ChemScore.Ligand.Score.Contributions>
AtomID ChemScore.Hbond ChemScore.Metal ChemScore.Lipo ChemScore.DEClash ChemScore.total
1         0.00     0.00     0.00     0.03    -0.03
2         0.00     0.00    23.73     0.00     2.78
3         0.00     0.00    22.87     0.00     2.68
5         1.00     0.00     0.00     0.01     3.32
7         0.00     0.00    17.85     0.00     2.09
8         0.00     0.00    21.21     0.00     2.48
9         0.00     0.00    19.97     0.00     2.34
10        0.00     0.00    16.08     0.00     1.88
11        0.00     0.00     0.00     0.04    -0.04
12        0.00     0.00     9.61     0.00     1.12
13        0.00     0.00     7.64     0.00     0.89
14        0.00     0.00     9.83     0.00     1.15
15        0.00     0.00    14.49     0.00     1.70
16        0.00     0.00     7.37     0.00     0.86
17        0.00     0.00     8.73     0.00     1.02
18        0.00     0.00     6.73     0.00     0.79
19        0.00     0.00     4.52     0.00     0.53
21        0.00     0.00     3.96     0.01     0.45
22        0.00     0.00     5.10     0.01     0.59

> <gold pose ID>
ligprep_Molport_list.sdf:6|Molport_ligands|sdf|6|dock10

$$$$
ligprep_Molport_list.sdf:7|Molport_ligands|sdf|7|dock8
                    3D
 Schrodinger Suite 2020-2.
 30 33  0  0  1  0            999 V2000
   32.6163   -8.3251    1.0352 O   0  5  0  0  0  0
   33.6718   -8.5425    1.7367 C   0  0  0  0  0  0
   34.6264   -7.5814    1.8216 C   0  0  0  0  0  0
   35.8643   -7.7090    2.5818 C   0  0  0  0  0  0
   36.7196   -6.8288    2.6420 O   0  0  0  0  0  0
   36.0048   -8.8965    3.2291 N   0  0  0  0  0  0
   35.0662   -9.9245    3.1864 C   0  0  0  0  0  0
   33.8881   -9.7991    2.4570 C   0  0  0  0  0  0
   32.8618  -11.2141    2.5471 S   0  0  0  0  0  0
   34.0382  -12.0013    3.5918 C   0  0  0  0  0  0
   33.8611  -13.2314    4.0776 N   0  0  0  0  0  0
   34.8434  -13.7234    4.8832 C   0  0  0  0  0  0
   36.0015  -13.0006    5.1909 C   0  0  0  0  0  0
   36.1790  -11.7168    4.6761 C   0  0  0  0  0  0
   35.1763  -11.1802    3.8487 C   0  0  0  0  0  0
   34.6329  -15.1053    5.4100 C   0  0  0  0  0  0
   35.4518  -15.5588    6.4556 C   0  0  0  0  0  0
   35.3135  -16.8421    6.9808 C   0  0  0  0  0  0
   34.3432  -17.6994    6.4714 C   0  0  0  0  0  0
   33.5087  -17.2673    5.4441 C   0  0  0  0  0  0
   33.6412  -15.9811    4.9153 C   0  0  0  0  0  0
   32.5190  -15.5082    3.6830 Cl  0  0  0  0  0  0
   34.4818   -6.6470    1.2964 H   0  0  0  0  0  0
   36.8575   -8.9981    3.7599 H   0  0  0  0  0  0
   36.7606  -13.4266    5.8311 H   0  0  0  0  0  0
   37.0679  -11.1507    4.9120 H   0  0  0  0  0  0
   36.2179  -14.9142    6.8618 H   0  0  0  0  0  0
   35.9604  -17.1715    7.7805 H   0  0  0  0  0  0
   34.2328  -18.6947    6.8761 H   0  0  0  0  0  0
   32.7484  -17.9334    5.0628 H   0  0  0  0  0  0
  1  2  1  0  0  0
  2  3  2  0  0  0
  2  8  1  0  0  0
  3  4  1  0  0  0
  3 23  1  0  0  0
  4  5  2  0  0  0
  4  6  1  0  0  0
  6  7  1  0  0  0
  6 24  1  0  0  0
  7  8  2  0  0  0
  7 15  1  0  0  0
  8  9  1  0  0  0
  9 10  1  0  0  0
 10 11  2  0  0  0
 10 15  1  0  0  0
 11 12  1  0  0  0
 12 13  2  0  0  0
 12 16  1  0  0  0
 13 14  1  0  0  0
 13 25  1  0  0  0
 14 15  2  0  0  0
 14 26  1  0  0  0
 16 17  2  0  0  0
 16 21  1  0  0  0
 17 18  1  0  0  0
 17 27  1  0  0  0
 18 19  2  0  0  0
 18 28  1  0  0  0
 19 20  1  0  0  0
 19 29  1  0  0  0
 20 21  2  0  0  0
 20 30  1  0  0  0
 21 22  1  0  0  0
M  CHG  1   1  -1
M  END
> <Gold.Chemscore.Fitness>
44.9359

> <Gold.Version>
5.8.1

> <Gold.Chemscore.DG>
-49.8363

> <Gold.Chemscore.Hbond.Weighted>
-3.3181

> <Gold.Chemscore.Lipo.Weighted>
-41.0382

> <Gold.Chemscore.Internal_Hbond.Weighted>
0

> <Gold.Chemscore.DEClash.Weighted>
11.7327

> <Gold.Chemscore.DEInternal.Weighted>
0.8977

> <Gold.Chemscore.Internal.Correction.Weighted>
0.7371

> <Gold.Chemscore.Constraint>
-7.73

> <Gold.ChemScore.Ligand.Score.Contributions>
AtomID ChemScore.Hbond ChemScore.Metal ChemScore.Lipo ChemScore.DEClash ChemScore.total
1         0.99     0.00     0.00     0.15     3.17
2         0.00     0.00    10.54     0.00     1.23
3         0.00     0.00     6.80     0.00     0.80
7         0.00     0.00    13.88     0.00     1.62
8         0.00     0.00    14.89     0.00     1.74
9         0.00     0.00    19.07     0.74     1.49
10        0.00     0.00    20.95     0.01     2.44
12        0.00     0.00    22.43     0.00     2.62
13        0.00     0.00    19.10     0.00     2.23
14        0.00     0.00    16.41     0.00     1.92
15        0.00     0.00    17.07     0.00     1.99
16        0.00     0.00    24.56     0.00     2.87
17        0.00     0.00    23.63     0.52     2.25
18        0.00     0.00    25.32     3.16    -0.20
19        0.00     0.00    28.44     3.70    -0.37
20        0.00     0.00    31.08     1.31     2.33
21        0.00     0.00    28.56     0.00     3.34
22        0.00     0.00    26.79     2.15     0.98

> <gold pose ID>
ligprep_Molport_list.sdf:7|Molport_ligands|sdf|7|dock8

$$$$
ligprep_Molport_list.sdf:7|Molport_ligands|sdf|7|dock3
                    3D
 Schrodinger Suite 2020-2.
 30 33  0  0  1  0            999 V2000
   32.5048   -8.0562    0.4659 O   0  5  0  0  0  0
   33.4177   -8.1820    1.3627 C   0  0  0  0  0  0
   34.2250   -7.1283    1.6456 C   0  0  0  0  0  0
   35.2941   -7.1474    2.6373 C   0  0  0  0  0  0
   36.0185   -6.1838    2.8754 O   0  0  0  0  0  0
   35.4331   -8.3326    3.2891 N   0  0  0  0  0  0
   34.6402   -9.4524    3.0501 C   0  0  0  0  0  0
   33.6236   -9.4301    2.1006 C   0  0  0  0  0  0
   32.7616  -10.9479    1.9707 S   0  0  0  0  0  0
   33.7867  -11.6378    3.2230 C   0  0  0  0  0  0
   33.6531  -12.8939    3.6525 N   0  0  0  0  0  0
   34.5042  -13.3036    4.6343 C   0  0  0  0  0  0
   35.4918  -12.4721    5.1742 C   0  0  0  0  0  0
   35.6257  -11.1615    4.7167 C   0  0  0  0  0  0
   34.7541  -10.7090    3.7099 C   0  0  0  0  0  0
   34.3465  -14.7155    5.0960 C   0  0  0  0  0  0
   35.0663  -15.1390    6.2238 C   0  0  0  0  0  0
   34.9721  -16.4469    6.6954 C   0  0  0  0  0  0
   34.1460  -17.3601    6.0477 C   0  0  0  0  0  0
   33.4103  -16.9599    4.9355 C   0  0  0  0  0  0
   33.4990  -15.6495    4.4597 C   0  0  0  0  0  0
   32.5004  -15.2242    3.1093 Cl  0  0  0  0  0  0
   34.0856   -6.1988    1.1104 H   0  0  0  0  0  0
   36.1695   -8.3596    3.9790 H   0  0  0  0  0  0
   36.1510  -12.8347    5.9497 H   0  0  0  0  0  0
   36.3825  -10.5121    5.1309 H   0  0  0  0  0  0
   35.7208  -14.4503    6.7384 H   0  0  0  0  0  0
   35.5416  -16.7518    7.5610 H   0  0  0  0  0  0
   34.0701  -18.3747    6.4105 H   0  0  0  0  0  0
   32.7603  -17.6704    4.4458 H   0  0  0  0  0  0
  1  2  1  0  0  0
  2  3  2  0  0  0
  2  8  1  0  0  0
  3  4  1  0  0  0
  3 23  1  0  0  0
  4  5  2  0  0  0
  4  6  1  0  0  0
  6  7  1  0  0  0
  6 24  1  0  0  0
  7  8  2  0  0  0
  7 15  1  0  0  0
  8  9  1  0  0  0
  9 10  1  0  0  0
 10 11  2  0  0  0
 10 15  1  0  0  0
 11 12  1  0  0  0
 12 13  2  0  0  0
 12 16  1  0  0  0
 13 14  1  0  0  0
 13 25  1  0  0  0
 14 15  2  0  0  0
 14 26  1  0  0  0
 16 17  2  0  0  0
 16 21  1  0  0  0
 17 18  1  0  0  0
 17 27  1  0  0  0
 18 19  2  0  0  0
 18 28  1  0  0  0
 19 20  1  0  0  0
 19 29  1  0  0  0
 20 21  2  0  0  0
 20 30  1  0  0  0
 21 22  1  0  0  0
M  CHG  1   1  -1
M  END
> <Gold.Chemscore.Fitness>
43.9195

> <Gold.Version>
5.8.1

> <Gold.Chemscore.DG>
-48.8231

> <Gold.Chemscore.Hbond.Weighted>
-3.1655

> <Gold.Chemscore.Lipo.Weighted>
-40.1776

> <Gold.Chemscore.Internal_Hbond.Weighted>
0

> <Gold.Chemscore.DEClash.Weighted>
12.0244

> <Gold.Chemscore.DEInternal.Weighted>
0.8422

> <Gold.Chemscore.Internal.Correction.Weighted>
0.7659

> <Gold.Chemscore.Constraint>
-7.963

> <Gold.ChemScore.Ligand.Score.Contributions>
AtomID ChemScore.Hbond ChemScore.Metal ChemScore.Lipo ChemScore.DEClash ChemScore.total
1         0.95     0.00     0.00     0.07     3.09
2         0.00     0.00     9.06     0.00     1.06
3         0.00     0.00     5.88     0.00     0.69
7         0.00     0.00    13.57     0.00     1.59
8         0.00     0.00    13.55     0.00     1.58
9         0.00     0.00    17.35     4.16    -2.13
10        0.00     0.00    20.18     0.47     1.89
11        0.00     0.00     0.00     0.15    -0.15
12        0.00     0.00    22.69     0.00     2.65
13        0.00     0.00    19.54     0.00     2.29
14        0.00     0.00    16.27     0.00     1.90
15        0.00     0.00    16.87     0.00     1.97
16        0.00     0.00    24.76     0.00     2.90
17        0.00     0.00    23.44     0.28     2.46
18        0.00     0.00    25.76     0.12     2.89
19        0.00     0.00    29.52     2.74     0.71
20        0.00     0.00    30.53     0.12     3.46
21        0.00     0.00    27.58     0.04     3.19
22        0.00     0.00    26.04     3.88    -0.83

> <gold pose ID>
ligprep_Molport_list.sdf:7|Molport_ligands|sdf|7|dock3

$$$$
ligprep_Molport_list.sdf:7|Molport_ligands|sdf|7|dock5
                    3D
 Schrodinger Suite 2020-2.
 30 33  0  0  1  0            999 V2000
   32.5153   -8.0398    0.6870 O   0  5  0  0  0  0
   33.4561   -8.1542    1.5561 C   0  0  0  0  0  0
   34.2458   -7.0848    1.8295 C   0  0  0  0  0  0
   35.3429   -7.0899    2.7902 C   0  0  0  0  0  0
   36.0506   -6.1120    3.0201 O   0  0  0  0  0  0
   35.5286   -8.2792    3.4228 N   0  0  0  0  0  0
   34.7561   -9.4148    3.1920 C   0  0  0  0  0  0
   33.7127   -9.4057    2.2719 C   0  0  0  0  0  0
   32.8837  -10.9422    2.1472 S   0  0  0  0  0  0
   33.9603  -11.6221    3.3611 C   0  0  0  0  0  0
   33.8689  -12.8862    3.7783 N   0  0  0  0  0  0
   34.7572  -13.2870    4.7304 C   0  0  0  0  0  0
   35.7396  -12.4384    5.2528 C   0  0  0  0  0  0
   35.8291  -11.1195    4.8084 C   0  0  0  0  0  0
   34.9188  -10.6762    3.8324 C   0  0  0  0  0  0
   34.6464  -14.7077    5.1784 C   0  0  0  0  0  0
   35.6129  -15.2118    6.0622 C   0  0  0  0  0  0
   35.5718  -16.5322    6.5058 C   0  0  0  0  0  0
   34.5532  -17.3771    6.0761 C   0  0  0  0  0  0
   33.5742  -16.8960    5.2110 C   0  0  0  0  0  0
   33.6090  -15.5727    4.7649 C   0  0  0  0  0  0
   32.3154  -15.0442    3.7408 Cl  0  0  0  0  0  0
   34.0691   -6.1526    1.3102 H   0  0  0  0  0  0
   36.2848   -8.2966    4.0913 H   0  0  0  0  0  0
   36.4291  -12.7942    6.0047 H   0  0  0  0  0  0
   36.5818  -10.4570    5.2093 H   0  0  0  0  0  0
   36.4183  -14.5773    6.4031 H   0  0  0  0  0  0
   36.3312  -16.8999    7.1801 H   0  0  0  0  0  0
   34.5178  -18.4010    6.4180 H   0  0  0  0  0  0
   32.7784  -17.5536    4.8923 H   0  0  0  0  0  0
  1  2  1  0  0  0
  2  3  2  0  0  0
  2  8  1  0  0  0
  3  4  1  0  0  0
  3 23  1  0  0  0
  4  5  2  0  0  0
  4  6  1  0  0  0
  6  7  1  0  0  0
  6 24  1  0  0  0
  7  8  2  0  0  0
  7 15  1  0  0  0
  8  9  1  0  0  0
  9 10  1  0  0  0
 10 11  2  0  0  0
 10 15  1  0  0  0
 11 12  1  0  0  0
 12 13  2  0  0  0
 12 16  1  0  0  0
 13 14  1  0  0  0
 13 25  1  0  0  0
 14 15  2  0  0  0
 14 26  1  0  0  0
 16 17  2  0  0  0
 16 21  1  0  0  0
 17 18  1  0  0  0
 17 27  1  0  0  0
 18 19  2  0  0  0
 18 28  1  0  0  0
 19 20  1  0  0  0
 19 29  1  0  0  0
 20 21  2  0  0  0
 20 30  1  0  0  0
 21 22  1  0  0  0
M  CHG  1   1  -1
M  END
> <Gold.Chemscore.Fitness>
43.6509

> <Gold.Version>
5.8.1

> <Gold.Chemscore.DG>
-48.1261

> <Gold.Chemscore.Hbond.Weighted>
-3.1738

> <Gold.Chemscore.Lipo.Weighted>
-39.4723

> <Gold.Chemscore.Internal_Hbond.Weighted>
0

> <Gold.Chemscore.DEClash.Weighted>
11.383

> <Gold.Chemscore.DEInternal.Weighted>
0.8466

> <Gold.Chemscore.Internal.Correction.Weighted>
0.7371

> <Gold.Chemscore.Constraint>
-7.7543

> <Gold.ChemScore.Ligand.Score.Contributions>
AtomID ChemScore.Hbond ChemScore.Metal ChemScore.Lipo ChemScore.DEClash ChemScore.total
1         0.95     0.00     0.00     0.16     3.01
2         0.00     0.00     9.32     0.00     1.09
3         0.00     0.00     6.21     0.00     0.73
7         0.00     0.00    13.38     0.00     1.57
8         0.00     0.00    13.78     0.00     1.61
9         0.00     0.00    17.62     2.88    -0.82
10        0.00     0.00    20.13     0.06     2.30
12        0.00     0.00    22.20     0.00     2.60
13        0.00     0.00    19.04     0.00     2.23
14        0.00     0.00    15.73     0.00     1.84
15        0.00     0.00    16.56     0.00     1.94
16        0.00     0.00    23.93     0.01     2.79
17        0.00     0.00    22.69     1.25     1.41
18        0.00     0.00    24.52     2.02     0.85
19        0.00     0.00    28.19     1.74     1.55
20        0.00     0.00    30.42     0.00     3.56
21        0.00     0.00    27.50     0.00     3.22
22        0.00     0.00    26.55     3.26    -0.16

> <gold pose ID>
ligprep_Molport_list.sdf:7|Molport_ligands|sdf|7|dock5

$$$$
ligprep_Molport_list.sdf:8|Molport_ligands|sdf|8|dock6
                    3D
 Schrodinger Suite 2020-2.
 33 36  0  0  1  0            999 V2000
   32.5506   -8.3180    1.0960 O   0  5  0  0  0  0
   33.6566   -8.5393    1.7137 C   0  0  0  0  0  0
   34.6208   -7.5854    1.7155 C   0  0  0  0  0  0
   35.9123   -7.7187    2.3762 C   0  0  0  0  0  0
   36.7785   -6.8473    2.3598 O   0  0  0  0  0  0
   36.0904   -8.9017    3.0212 N   0  0  0  0  0  0
   35.1489   -9.9289    3.0651 C   0  0  0  0  0  0
   33.9193   -9.7924    2.4251 C   0  0  0  0  0  0
   32.8849  -11.1875    2.5968 S   0  0  0  0  0  0
   34.1238  -11.9852    3.5536 C   0  0  0  0  0  0
   33.9437  -13.2093    4.0459 N   0  0  0  0  0  0
   34.9605  -13.7311    4.7789 C   0  0  0  0  0  0
   36.1547  -13.0437    5.0083 C   0  0  0  0  0  0
   36.3574  -11.7549    4.4927 C   0  0  0  0  0  0
   35.3004  -11.1899    3.7308 C   0  0  0  0  0  0
   37.6801  -11.0373    4.7736 C   0  0  0  0  0  0
   38.3947  -10.9570    3.6514 F   0  0  0  0  0  0
   37.4365   -9.8075    5.2263 F   0  0  0  0  0  0
   38.4281  -11.6627    5.6852 F   0  0  0  0  0  0
   34.7455  -15.1081    5.3161 C   0  0  0  0  0  0
   35.6239  -15.5924    6.2976 C   0  0  0  0  0  0
   35.4809  -16.8722    6.8307 C   0  0  0  0  0  0
   34.4471  -17.6946    6.3934 C   0  0  0  0  0  0
   33.5552  -17.2317    5.4297 C   0  0  0  0  0  0
   33.6919  -15.9489    4.8937 C   0  0  0  0  0  0
   32.5006  -15.4344    3.7457 Cl  0  0  0  0  0  0
   34.4423   -6.6535    1.1964 H   0  0  0  0  0  0
   36.9819   -9.0035    3.4843 H   0  0  0  0  0  0
   36.9232  -13.5205    5.5996 H   0  0  0  0  0  0
   36.4396  -14.9755    6.6467 H   0  0  0  0  0  0
   36.1730  -17.2259    7.5807 H   0  0  0  0  0  0
   34.3331  -18.6868    6.8048 H   0  0  0  0  0  0
   32.7468  -17.8706    5.1046 H   0  0  0  0  0  0
  1  2  1  0  0  0
  2  3  2  0  0  0
  2  8  1  0  0  0
  3  4  1  0  0  0
  3 27  1  0  0  0
  4  5  2  0  0  0
  4  6  1  0  0  0
  6  7  1  0  0  0
  6 28  1  0  0  0
  7  8  2  0  0  0
  7 15  1  0  0  0
  8  9  1  0  0  0
  9 10  1  0  0  0
 10 11  2  0  0  0
 10 15  1  0  0  0
 11 12  1  0  0  0
 12 13  2  0  0  0
 12 20  1  0  0  0
 13 14  1  0  0  0
 13 29  1  0  0  0
 14 15  2  0  0  0
 14 16  1  0  0  0
 16 17  1  0  0  0
 16 18  1  0  0  0
 16 19  1  0  0  0
 20 21  2  0  0  0
 20 25  1  0  0  0
 21 22  1  0  0  0
 21 30  1  0  0  0
 22 23  2  0  0  0
 22 31  1  0  0  0
 23 24  1  0  0  0
 23 32  1  0  0  0
 24 25  2  0  0  0
 24 33  1  0  0  0
 25 26  1  0  0  0
M  CHG  1   1  -1
M  END
> <Gold.Chemscore.Fitness>
45.3711

> <Gold.Version>
5.8.1

> <Gold.Chemscore.DG>
-50.6398

> <Gold.Chemscore.Hbond.Weighted>
-3.331

> <Gold.Chemscore.Lipo.Weighted>
-41.8288

> <Gold.Chemscore.Internal_Hbond.Weighted>
0

> <Gold.Chemscore.DEClash.Weighted>
11.5683

> <Gold.Chemscore.DEInternal.Weighted>
1.123

> <Gold.Chemscore.Internal.Correction.Weighted>
2.2801

> <Gold.Chemscore.Constraint>
-7.4226

> <Gold.ChemScore.Ligand.Score.Contributions>
AtomID ChemScore.Hbond ChemScore.Metal ChemScore.Lipo ChemScore.DEClash ChemScore.total
1         1.00     0.00     0.00     0.15     3.18
2         0.00     0.00    10.49     0.00     1.23
3         0.00     0.00     6.63     0.00     0.78
7         0.00     0.00    13.58     0.00     1.59
8         0.00     0.00    14.76     0.01     1.72
9         0.00     0.00    19.10     0.74     1.49
10        0.00     0.00    20.54     0.07     2.33
12        0.00     0.00    22.00     0.00     2.57
13        0.00     0.00    18.66     0.00     2.18
14        0.00     0.00    16.01     0.00     1.87
15        0.00     0.00    16.61     0.03     1.91
16        0.00     0.00    11.57     0.00     1.35
18        0.00     0.00     0.00     0.02    -0.02
20        0.00     0.00    24.40     0.00     2.85
21        0.00     0.00    23.32     1.26     1.47
22        0.00     0.00    25.09     2.47     0.46
23        0.00     0.00    28.24     3.70    -0.39
24        0.00     0.00    30.99     1.31     2.32
25        0.00     0.00    28.30     0.00     3.31
26        0.00     0.00    26.80     1.82     1.32

> <gold pose ID>
ligprep_Molport_list.sdf:8|Molport_ligands|sdf|8|dock6

$$$$
ligprep_Molport_list.sdf:8|Molport_ligands|sdf|8|dock10
                    3D
 Schrodinger Suite 2020-2.
 33 36  0  0  1  0            999 V2000
   32.6201   -8.3159    1.1770 O   0  5  0  0  0  0
   33.6838   -8.5291    1.8676 C   0  0  0  0  0  0
   34.6110   -7.5461    1.9831 C   0  0  0  0  0  0
   35.8532   -7.6673    2.7344 C   0  0  0  0  0  0
   36.6871   -6.7689    2.8208 O   0  0  0  0  0  0
   36.0240   -8.8716    3.3408 N   0  0  0  0  0  0
   35.1186   -9.9292    3.2695 C   0  0  0  0  0  0
   33.9364   -9.8036    2.5437 C   0  0  0  0  0  0
   32.9417  -11.2373    2.5772 S   0  0  0  0  0  0
   34.1326  -12.0368    3.5916 C   0  0  0  0  0  0
   33.9593  -13.2867    4.0170 N   0  0  0  0  0  0
   34.9360  -13.8079    4.8029 C   0  0  0  0  0  0
   36.0847  -13.0937    5.1516 C   0  0  0  0  0  0
   36.2801  -11.7775    4.7075 C   0  0  0  0  0  0
   35.2640  -11.2131    3.8914 C   0  0  0  0  0  0
   37.5519  -11.0313    5.1185 C   0  0  0  0  0  0
   38.2266  -11.7525    6.0135 F   0  0  0  0  0  0
   38.3209  -10.8312    4.0482 F   0  0  0  0  0  0
   37.3024   -9.8394    5.6652 F   0  0  0  0  0  0
   34.7299  -15.2137    5.2639 C   0  0  0  0  0  0
   35.6042  -15.7413    6.2267 C   0  0  0  0  0  0
   35.4691  -17.0490    6.6894 C   0  0  0  0  0  0
   34.4476  -17.8567    6.1990 C   0  0  0  0  0  0
   33.5599  -17.3515    5.2527 C   0  0  0  0  0  0
   33.6887  -16.0407    4.7871 C   0  0  0  0  0  0
   32.5028  -15.4770    3.6568 Cl  0  0  0  0  0  0
   34.4394   -6.5982    1.4913 H   0  0  0  0  0  0
   36.8814   -8.9654    3.8660 H   0  0  0  0  0  0
   36.8231  -13.5716    5.7793 H   0  0  0  0  0  0
   36.4104  -15.1362    6.6159 H   0  0  0  0  0  0
   36.1578  -17.4357    7.4261 H   0  0  0  0  0  0
   34.3397  -18.8705    6.5558 H   0  0  0  0  0  0
   32.7610  -17.9798    4.8863 H   0  0  0  0  0  0
  1  2  1  0  0  0
  2  3  2  0  0  0
  2  8  1  0  0  0
  3  4  1  0  0  0
  3 27  1  0  0  0
  4  5  2  0  0  0
  4  6  1  0  0  0
  6  7  1  0  0  0
  6 28  1  0  0  0
  7  8  2  0  0  0
  7 15  1  0  0  0
  8  9  1  0  0  0
  9 10  1  0  0  0
 10 11  2  0  0  0
 10 15  1  0  0  0
 11 12  1  0  0  0
 12 13  2  0  0  0
 12 20  1  0  0  0
 13 14  1  0  0  0
 13 29  1  0  0  0
 14 15  2  0  0  0
 14 16  1  0  0  0
 16 17  1  0  0  0
 16 18  1  0  0  0
 16 19  1  0  0  0
 20 21  2  0  0  0
 20 25  1  0  0  0
 21 22  1  0  0  0
 21 30  1  0  0  0
 22 23  2  0  0  0
 22 31  1  0  0  0
 23 24  1  0  0  0
 23 32  1  0  0  0
 24 25  2  0  0  0
 24 33  1  0  0  0
 25 26  1  0  0  0
M  CHG  1   1  -1
M  END
> <Gold.Chemscore.Fitness>
44.5375

> <Gold.Version>
5.8.1

> <Gold.Chemscore.DG>
-51.0136

> <Gold.Chemscore.Hbond.Weighted>
-3.2506

> <Gold.Chemscore.Lipo.Weighted>
-42.283

> <Gold.Chemscore.Internal_Hbond.Weighted>
0

> <Gold.Chemscore.DEClash.Weighted>
13.1403

> <Gold.Chemscore.DEInternal.Weighted>
0.8946

> <Gold.Chemscore.Internal.Correction.Weighted>
2.2508

> <Gold.Chemscore.Constraint>
-7.5588

> <Gold.ChemScore.Ligand.Score.Contributions>
AtomID ChemScore.Hbond ChemScore.Metal ChemScore.Lipo ChemScore.DEClash ChemScore.total
1         0.97     0.00     0.00     0.13     3.12
2         0.00     0.00    10.73     0.00     1.26
3         0.00     0.00     7.06     0.00     0.83
7         0.00     0.00    13.85     0.00     1.62
8         0.00     0.00    14.97     0.00     1.75
9         0.00     0.00    19.14     1.13     1.11
10        0.00     0.00    20.67     0.07     2.35
12        0.00     0.00    22.17     0.00     2.59
13        0.00     0.00    18.99     0.00     2.22
14        0.00     0.00    16.41     0.00     1.92
15        0.00     0.00    16.96     0.00     1.98
16        0.00     0.00    12.11     0.00     1.42
19        0.00     0.00     0.00     0.94    -0.94
20        0.00     0.00    24.52     0.00     2.87
21        0.00     0.00    23.64     1.43     1.34
22        0.00     0.00    25.29     1.90     1.06
23        0.00     0.00    28.55     4.13    -0.79
24        0.00     0.00    31.06     1.40     2.24
25        0.00     0.00    28.53     0.00     3.34
26        0.00     0.00    26.75     2.02     1.11

> <gold pose ID>
ligprep_Molport_list.sdf:8|Molport_ligands|sdf|8|dock10

$$$$
ligprep_Molport_list.sdf:8|Molport_ligands|sdf|8|dock8
                    3D
 Schrodinger Suite 2020-2.
 33 36  0  0  1  0            999 V2000
   32.5007   -7.8820    0.2724 O   0  5  0  0  0  0
   33.5652   -7.9700    0.9885 C   0  0  0  0  0  0
   34.4567   -6.9479    0.9849 C   0  0  0  0  0  0
   35.6959   -6.9308    1.7505 C   0  0  0  0  0  0
   36.4973   -5.9996    1.7281 O   0  0  0  0  0  0
   35.9032   -8.0437    2.5027 N   0  0  0  0  0  0
   35.0357   -9.1335    2.5596 C   0  0  0  0  0  0
   33.8561   -9.1410    1.8189 C   0  0  0  0  0  0
   32.9115  -10.5938    2.0262 S   0  0  0  0  0  0
   34.1208  -11.2185    3.1370 C   0  0  0  0  0  0
   33.9873  -12.4114    3.7137 N   0  0  0  0  0  0
   34.9748  -12.7961    4.5624 C   0  0  0  0  0  0
   36.0950  -12.0038    4.8243 C   0  0  0  0  0  0
   36.2483  -10.7467    4.2209 C   0  0  0  0  0  0
   35.2202  -10.3244    3.3368 C   0  0  0  0  0  0
   37.4900   -9.9106    4.5412 C   0  0  0  0  0  0
   38.2696   -9.8328    3.4630 F   0  0  0  0  0  0
   37.1225   -8.6821    4.9053 F   0  0  0  0  0  0
   38.2215  -10.4240    5.5327 F   0  0  0  0  0  0
   34.8137  -14.1402    5.1937 C   0  0  0  0  0  0
   35.6488  -14.4837    6.2680 C   0  0  0  0  0  0
   35.5530  -15.7262    6.8920 C   0  0  0  0  0  0
   34.6110  -16.6520    6.4543 C   0  0  0  0  0  0
   33.7626  -16.3294    5.3985 C   0  0  0  0  0  0
   33.8520  -15.0846    4.7708 C   0  0  0  0  0  0
   32.7157  -14.7463    3.5075 Cl  0  0  0  0  0  0
   34.2565   -6.0750    0.3784 H   0  0  0  0  0  0
   36.7588   -8.0412    3.0390 H   0  0  0  0  0  0
   36.8441  -12.3736    5.5097 H   0  0  0  0  0  0
   36.3939  -13.7847    6.6200 H   0  0  0  0  0  0
   36.2109  -15.9709    7.7130 H   0  0  0  0  0  0
   34.5338  -17.6157    6.9361 H   0  0  0  0  0  0
   33.0245  -17.0479    5.0726 H   0  0  0  0  0  0
  1  2  1  0  0  0
  2  3  2  0  0  0
  2  8  1  0  0  0
  3  4  1  0  0  0
  3 27  1  0  0  0
  4  5  2  0  0  0
  4  6  1  0  0  0
  6  7  1  0  0  0
  6 28  1  0  0  0
  7  8  2  0  0  0
  7 15  1  0  0  0
  8  9  1  0  0  0
  9 10  1  0  0  0
 10 11  2  0  0  0
 10 15  1  0  0  0
 11 12  1  0  0  0
 12 13  2  0  0  0
 12 20  1  0  0  0
 13 14  1  0  0  0
 13 29  1  0  0  0
 14 15  2  0  0  0
 14 16  1  0  0  0
 16 17  1  0  0  0
 16 18  1  0  0  0
 16 19  1  0  0  0
 20 21  2  0  0  0
 20 25  1  0  0  0
 21 22  1  0  0  0
 21 30  1  0  0  0
 22 23  2  0  0  0
 22 31  1  0  0  0
 23 24  1  0  0  0
 23 32  1  0  0  0
 24 25  2  0  0  0
 24 33  1  0  0  0
 25 26  1  0  0  0
M  CHG  1   1  -1
M  END
> <Gold.Chemscore.Fitness>
43.5321

> <Gold.Version>
5.8.1

> <Gold.Chemscore.DG>
-46.0828

> <Gold.Chemscore.Hbond.Weighted>
-2.66

> <Gold.Chemscore.Lipo.Weighted>
-37.9427

> <Gold.Chemscore.Internal_Hbond.Weighted>
0

> <Gold.Chemscore.DEClash.Weighted>
8.9054

> <Gold.Chemscore.DEInternal.Weighted>
0.9948

> <Gold.Chemscore.Internal.Correction.Weighted>
2.2801

> <Gold.Chemscore.Constraint>
-7.3495

> <Gold.ChemScore.Ligand.Score.Contributions>
AtomID ChemScore.Hbond ChemScore.Metal ChemScore.Lipo ChemScore.DEClash ChemScore.total
1         0.80     0.00     0.00     0.01     2.65
2         0.00     0.00     7.78     0.00     0.91
3         0.00     0.00     4.17     0.00     0.49
7         0.00     0.00    11.39     0.00     1.33
8         0.00     0.00    11.97     0.00     1.40
9         0.00     0.00    16.62     3.00    -1.06
10        0.00     0.00    18.66     0.13     2.05
12        0.00     0.00    20.97     0.00     2.45
13        0.00     0.00    17.31     0.00     2.03
14        0.00     0.00    14.02     0.00     1.64
15        0.00     0.00    14.55     0.00     1.70
16        0.00     0.00     9.21     0.00     1.08
18        0.00     0.00     0.00     0.79    -0.79
20        0.00     0.00    23.05     0.08     2.62
21        0.00     0.00    21.38     1.16     1.34
22        0.00     0.00    23.40     3.03    -0.29
23        0.00     0.00    26.80     0.34     2.80
24        0.00     0.00    29.18     0.00     3.41
25        0.00     0.00    26.32     0.00     3.08
26        0.00     0.00    25.93     0.36     2.67

> <gold pose ID>
ligprep_Molport_list.sdf:8|Molport_ligands|sdf|8|dock8

$$$$
ligprep_Molport_list.sdf:9|Molport_ligands|sdf|9|dock6
                    3D
 Schrodinger Suite 2020-2.
 34 38  0  0  1  0            999 V2000
   32.5740   -8.1733    1.0370 O   0  5  0  0  0  0
   33.5893   -8.3301    1.8109 C   0  0  0  0  0  0
   34.4628   -7.3084    1.9721 C   0  0  0  0  0  0
   35.6427   -7.3675    2.8178 C   0  0  0  0  0  0
   36.4305   -6.4351    2.9584 O   0  0  0  0  0  0
   35.8101   -8.5565    3.4529 N   0  0  0  0  0  0
   34.9728   -9.6624    3.3536 C   0  0  0  0  0  0
   33.8431   -9.5805    2.5329 C   0  0  0  0  0  0
   32.8888  -11.0262    2.5005 S   0  0  0  0  0  0
   34.0137  -11.7782    3.6104 C   0  0  0  0  0  0
   33.7895  -13.0275    3.9997 N   0  0  0  0  0  0
   34.6811  -13.5692    4.8556 C   0  0  0  0  0  0
   35.7902  -12.8693    5.3210 C   0  0  0  0  0  0
   36.0647  -11.5426    4.9328 C   0  0  0  0  0  0
   37.3389  -10.9866    5.5757 C   0  0  0  0  0  0
   37.9210   -9.7109    5.4209 C   0  0  0  0  0  0
   39.0960   -9.4945    6.1437 C   0  0  0  0  0  0
   39.4679  -10.5929    6.8846 C   0  0  0  0  0  0
   38.3507  -11.8910    6.6767 S   0  0  0  0  0  0
   35.1204  -10.9458    4.0162 C   0  0  0  0  0  0
   34.4148  -14.9852    5.2884 C   0  0  0  0  0  0
   35.2097  -15.8327    6.0668 C   0  0  0  0  0  0
   34.6536  -17.0978    6.2803 C   0  0  0  0  0  0
   33.4205  -17.2481    5.6706 C   0  0  0  0  0  0
   32.9421  -15.8148    4.8254 S   0  0  0  0  0  0
   34.2933   -6.3775    1.4481 H   0  0  0  0  0  0
   36.6295   -8.6003    4.0414 H   0  0  0  0  0  0
   36.4364  -13.3961    5.9998 H   0  0  0  0  0  0
   37.5233   -8.9249    4.7992 H   0  0  0  0  0  0
   39.6512   -8.5684    6.1237 H   0  0  0  0  0  0
   40.3268  -10.7018    7.5302 H   0  0  0  0  0  0
   36.1688  -15.5500    6.4734 H   0  0  0  0  0  0
   35.1346  -17.8731    6.8584 H   0  0  0  0  0  0
   32.7807  -18.1181    5.6774 H   0  0  0  0  0  0
  1  2  1  0  0  0
  2  3  2  0  0  0
  2  8  1  0  0  0
  3  4  1  0  0  0
  3 26  1  0  0  0
  4  5  2  0  0  0
  4  6  1  0  0  0
  6  7  1  0  0  0
  6 27  1  0  0  0
  7  8  2  0  0  0
  7 20  1  0  0  0
  8  9  1  0  0  0
  9 10  1  0  0  0
 10 11  2  0  0  0
 10 20  1  0  0  0
 11 12  1  0  0  0
 12 13  2  0  0  0
 12 21  1  0  0  0
 13 14  1  0  0  0
 13 28  1  0  0  0
 14 15  1  0  0  0
 14 20  2  0  0  0
 15 16  2  0  0  0
 15 19  1  0  0  0
 16 17  1  0  0  0
 16 29  1  0  0  0
 17 18  2  0  0  0
 17 30  1  0  0  0
 18 19  1  0  0  0
 18 31  1  0  0  0
 21 22  2  0  0  0
 21 25  1  0  0  0
 22 23  1  0  0  0
 22 32  1  0  0  0
 23 24  2  0  0  0
 23 33  1  0  0  0
 24 25  1  0  0  0
 24 34  1  0  0  0
M  CHG  1   1  -1
M  END
> <Gold.Chemscore.Fitness>
51.6055

> <Gold.Version>
5.8.1

> <Gold.Chemscore.DG>
-49.0099

> <Gold.Chemscore.Hbond.Weighted>
-3.1802

> <Gold.Chemscore.Lipo.Weighted>
-40.3497

> <Gold.Chemscore.Internal_Hbond.Weighted>
0

> <Gold.Chemscore.DEClash.Weighted>
4.8938

> <Gold.Chemscore.DEInternal.Weighted>
0.0159

> <Gold.Chemscore.Internal.Correction.Weighted>
0

> <Gold.Chemscore.Constraint>
-7.5052

> <Gold.ChemScore.Ligand.Score.Contributions>
AtomID ChemScore.Hbond ChemScore.Metal ChemScore.Lipo ChemScore.DEClash ChemScore.total
1         0.95     0.00     0.00     0.22     2.96
2         0.00     0.00    10.28     0.00     1.20
3         0.00     0.00     6.66     0.00     0.78
7         0.00     0.00    13.59     0.01     1.58
8         0.00     0.00    14.56     0.00     1.70
9         0.00     0.00    18.59     0.38     1.80
10        0.00     0.00    20.79     0.00     2.43
12        0.00     0.00    22.77     0.00     2.66
13        0.00     0.00    19.50     0.00     2.28
14        0.00     0.00    16.47     0.00     1.93
15        0.00     0.00    12.54     0.00     1.47
16        0.00     0.00     8.05     0.00     0.94
17        0.00     0.00     6.19     0.00     0.72
18        0.00     0.00     8.02     0.00     0.94
19        0.00     0.00    12.60     0.00     1.47
20        0.00     0.00    16.74     0.00     1.96
21        0.00     0.00    24.97     0.03     2.89
22        0.00     0.00    24.86     0.05     2.86
23        0.00     0.00    27.45     1.36     1.86
24        0.00     0.00    31.08     1.50     2.14
25        0.00     0.00    28.44     1.35     1.98

> <gold pose ID>
ligprep_Molport_list.sdf:9|Molport_ligands|sdf|9|dock6

$$$$
ligprep_Molport_list.sdf:9|Molport_ligands|sdf|9|dock7
                    3D
 Schrodinger Suite 2020-2.
 34 38  0  0  1  0            999 V2000
   32.5055   -8.3988    1.1257 O   0  5  0  0  0  0
   33.5192   -8.5605    1.9007 C   0  0  0  0  0  0
   34.3860   -7.5360    2.0791 C   0  0  0  0  0  0
   35.5635   -7.6000    2.9278 C   0  0  0  0  0  0
   36.3453   -6.6651    3.0842 O   0  0  0  0  0  0
   35.7360   -8.7969    3.5467 N   0  0  0  0  0  0
   34.9057   -9.9062    3.4291 C   0  0  0  0  0  0
   33.7781   -9.8194    2.6058 C   0  0  0  0  0  0
   32.8325  -11.2702    2.5500 S   0  0  0  0  0  0
   33.9584  -12.0311    3.6529 C   0  0  0  0  0  0
   33.7404  -13.2870    4.0238 N   0  0  0  0  0  0
   34.6324  -13.8355    4.8750 C   0  0  0  0  0  0
   35.7358  -13.1356    5.3538 C   0  0  0  0  0  0
   36.0037  -11.8019    4.9852 C   0  0  0  0  0  0
   37.2725  -11.2476    5.6401 C   0  0  0  0  0  0
   37.8765  -11.6291    6.8566 C   0  0  0  0  0  0
   39.0394  -10.9338    7.1944 C   0  0  0  0  0  0
   39.3796   -9.9888    6.2537 C   0  0  0  0  0  0
   38.2477   -9.9713    4.9518 S   0  0  0  0  0  0
   35.0588  -11.1979    4.0740 C   0  0  0  0  0  0
   34.3732  -15.2590    5.2869 C   0  0  0  0  0  0
   33.5007  -16.1946    4.7218 C   0  0  0  0  0  0
   33.5083  -17.4386    5.3605 C   0  0  0  0  0  0
   34.3864  -17.4840    6.4290 C   0  0  0  0  0  0
   35.2110  -15.9775    6.6482 S   0  0  0  0  0  0
   34.2126   -6.5989    1.5678 H   0  0  0  0  0  0
   36.5537   -8.8441    4.1372 H   0  0  0  0  0  0
   36.3829  -13.6681    6.0273 H   0  0  0  0  0  0
   37.5035  -12.3982    7.5137 H   0  0  0  0  0  0
   39.6085  -11.1172    8.0937 H   0  0  0  0  0  0
   40.2232   -9.3147    6.2609 H   0  0  0  0  0  0
   32.8715  -15.9899    3.8690 H   0  0  0  0  0  0
   32.8952  -18.2729    5.0528 H   0  0  0  0  0  0
   34.5850  -18.3169    7.0872 H   0  0  0  0  0  0
  1  2  1  0  0  0
  2  3  2  0  0  0
  2  8  1  0  0  0
  3  4  1  0  0  0
  3 26  1  0  0  0
  4  5  2  0  0  0
  4  6  1  0  0  0
  6  7  1  0  0  0
  6 27  1  0  0  0
  7  8  2  0  0  0
  7 20  1  0  0  0
  8  9  1  0  0  0
  9 10  1  0  0  0
 10 11  2  0  0  0
 10 20  1  0  0  0
 11 12  1  0  0  0
 12 13  2  0  0  0
 12 21  1  0  0  0
 13 14  1  0  0  0
 13 28  1  0  0  0
 14 15  1  0  0  0
 14 20  2  0  0  0
 15 16  2  0  0  0
 15 19  1  0  0  0
 16 17  1  0  0  0
 16 29  1  0  0  0
 17 18  2  0  0  0
 17 30  1  0  0  0
 18 19  1  0  0  0
 18 31  1  0  0  0
 21 22  2  0  0  0
 21 25  1  0  0  0
 22 23  1  0  0  0
 22 32  1  0  0  0
 23 24  2  0  0  0
 23 33  1  0  0  0
 24 25  1  0  0  0
 24 34  1  0  0  0
M  CHG  1   1  -1
M  END
> <Gold.Chemscore.Fitness>
51.3598

> <Gold.Version>
5.8.1

> <Gold.Chemscore.DG>
-50.514

> <Gold.Chemscore.Hbond.Weighted>
-3.3395

> <Gold.Chemscore.Lipo.Weighted>
-41.6945

> <Gold.Chemscore.Internal_Hbond.Weighted>
0

> <Gold.Chemscore.DEClash.Weighted>
6.4973

> <Gold.Chemscore.DEInternal.Weighted>
0.3943

> <Gold.Chemscore.Internal.Correction.Weighted>
0

> <Gold.Chemscore.Constraint>
-7.7374

> <Gold.ChemScore.Ligand.Score.Contributions>
AtomID ChemScore.Hbond ChemScore.Metal ChemScore.Lipo ChemScore.DEClash ChemScore.total
1         1.00     0.00     0.00     0.13     3.21
2         0.00     0.00    11.10     0.00     1.30
3         0.00     0.00     7.67     0.00     0.90
6         0.00     0.00     0.00     0.01    -0.01
7         0.00     0.00    14.35     0.00     1.68
8         0.00     0.00    15.40     0.00     1.80
9         0.00     0.00    19.18     0.74     1.50
10        0.00     0.00    21.33     0.01     2.48
12        0.00     0.00    23.05     0.00     2.70
13        0.00     0.00    20.02     0.00     2.34
14        0.00     0.00    17.23     0.00     2.02
15        0.00     0.00    13.44     0.00     1.57
16        0.00     0.00    13.11     0.06     1.48
17        0.00     0.00     9.65     0.00     1.13
18        0.00     0.00     6.72     0.00     0.79
19        0.00     0.00     7.97     0.00     0.93
20        0.00     0.00    17.55     0.00     2.05
21        0.00     0.00    25.77     0.00     3.02
22        0.00     0.00    28.96     0.00     3.39
23        0.00     0.00    31.16     1.49     2.16
24        0.00     0.00    28.33     3.34    -0.03
25        0.00     0.00    24.57     0.71     2.17

> <gold pose ID>
ligprep_Molport_list.sdf:9|Molport_ligands|sdf|9|dock7

$$$$
ligprep_Molport_list.sdf:9|Molport_ligands|sdf|9|dock10
                    3D
 Schrodinger Suite 2020-2.
 34 38  0  0  1  0            999 V2000
   32.5062   -8.1261    0.8085 O   0  5  0  0  0  0
   33.5157   -8.2350    1.5981 C   0  0  0  0  0  0
   34.3549   -7.1833    1.7484 C   0  0  0  0  0  0
   35.5250   -7.1878    2.6097 C   0  0  0  0  0  0
   36.2816   -6.2286    2.7402 O   0  0  0  0  0  0
   35.7209   -8.3576    3.2719 N   0  0  0  0  0  0
   34.9197   -9.4909    3.1857 C   0  0  0  0  0  0
   33.7987   -9.4615    2.3495 C   0  0  0  0  0  0
   32.8902  -10.9368    2.3360 S   0  0  0  0  0  0
   34.0234  -11.6300    3.4754 C   0  0  0  0  0  0
   33.8330  -12.8772    3.8883 N   0  0  0  0  0  0
   34.7297  -13.3729    4.7665 C   0  0  0  0  0  0
   35.8105  -12.6291    5.2306 C   0  0  0  0  0  0
   36.0487  -11.3028    4.8178 C   0  0  0  0  0  0
   37.2966  -10.6940    5.4644 C   0  0  0  0  0  0
   37.8456   -9.4071    5.2833 C   0  0  0  0  0  0
   39.0024   -9.1382    6.0177 C   0  0  0  0  0  0
   39.3925  -10.2052    6.7944 C   0  0  0  0  0  0
   38.3151  -11.5392    6.6055 S   0  0  0  0  0  0
   35.0984  -10.7551    3.8772 C   0  0  0  0  0  0
   34.5019  -14.7872    5.2259 C   0  0  0  0  0  0
   35.2847  -15.5739    6.0769 C   0  0  0  0  0  0
   34.7746  -16.8575    6.2953 C   0  0  0  0  0  0
   33.5899  -17.0831    5.6167 C   0  0  0  0  0  0
   33.1001  -15.6983    4.7001 S   0  0  0  0  0  0
   34.1634   -6.2693    1.2027 H   0  0  0  0  0  0
   36.5335   -8.3634    3.8712 H   0  0  0  0  0  0
   36.4638  -13.1212    5.9284 H   0  0  0  0  0  0
   37.4365   -8.6499    4.6340 H   0  0  0  0  0  0
   39.5321   -8.1978    5.9805 H   0  0  0  0  0  0
   40.2436  -10.2722    7.4558 H   0  0  0  0  0  0
   36.2028  -15.2348    6.5322 H   0  0  0  0  0  0
   35.2537  -17.5926    6.9253 H   0  0  0  0  0  0
   32.9913  -17.9819    5.6115 H   0  0  0  0  0  0
  1  2  1  0  0  0
  2  3  2  0  0  0
  2  8  1  0  0  0
  3  4  1  0  0  0
  3 26  1  0  0  0
  4  5  2  0  0  0
  4  6  1  0  0  0
  6  7  1  0  0  0
  6 27  1  0  0  0
  7  8  2  0  0  0
  7 20  1  0  0  0
  8  9  1  0  0  0
  9 10  1  0  0  0
 10 11  2  0  0  0
 10 20  1  0  0  0
 11 12  1  0  0  0
 12 13  2  0  0  0
 12 21  1  0  0  0
 13 14  1  0  0  0
 13 28  1  0  0  0
 14 15  1  0  0  0
 14 20  2  0  0  0
 15 16  2  0  0  0
 15 19  1  0  0  0
 16 17  1  0  0  0
 16 29  1  0  0  0
 17 18  2  0  0  0
 17 30  1  0  0  0
 18 19  1  0  0  0
 18 31  1  0  0  0
 21 22  2  0  0  0
 21 25  1  0  0  0
 22 23  1  0  0  0
 22 32  1  0  0  0
 23 24  2  0  0  0
 23 33  1  0  0  0
 24 25  1  0  0  0
 24 34  1  0  0  0
M  CHG  1   1  -1
M  END
> <Gold.Chemscore.Fitness>
51.1545

> <Gold.Version>
5.8.1

> <Gold.Chemscore.DG>
-47.7758

> <Gold.Chemscore.Hbond.Weighted>
-3.2991

> <Gold.Chemscore.Lipo.Weighted>
-38.9967

> <Gold.Chemscore.Internal_Hbond.Weighted>
0

> <Gold.Chemscore.DEClash.Weighted>
4.0485

> <Gold.Chemscore.DEInternal.Weighted>
0.0043

> <Gold.Chemscore.Internal.Correction.Weighted>
0

> <Gold.Chemscore.Constraint>
-7.4315

> <Gold.ChemScore.Ligand.Score.Contributions>
AtomID ChemScore.Hbond ChemScore.Metal ChemScore.Lipo ChemScore.DEClash ChemScore.total
1         0.99     0.00     0.00     0.20     3.09
2         0.00     0.00     9.59     0.00     1.12
3         0.00     0.00     6.06     0.00     0.71
7         0.00     0.00    13.27     0.00     1.55
8         0.00     0.00    13.89     0.00     1.63
9         0.00     0.00    18.03     1.43     0.68
10        0.00     0.00    20.25     0.06     2.31
12        0.00     0.00    22.38     0.00     2.62
13        0.00     0.00    19.25     0.00     2.25
14        0.00     0.00    15.77     0.00     1.84
15        0.00     0.00    11.77     0.00     1.38
16        0.00     0.00     7.72     0.00     0.90
17        0.00     0.00     5.70     0.00     0.67
18        0.00     0.00     7.24     0.00     0.85
19        0.00     0.00    11.98     0.00     1.40
20        0.00     0.00    16.29     0.00     1.91
21        0.00     0.00    24.34     0.01     2.84
22        0.00     0.00    24.16     0.04     2.79
23        0.00     0.00    26.98     0.46     2.70
24        0.00     0.00    30.75     1.28     2.32
25        0.00     0.00    28.15     0.58     2.72

> <gold pose ID>
ligprep_Molport_list.sdf:9|Molport_ligands|sdf|9|dock10

$$$$
ligprep_Molport_list.sdf:10|Molport_ligands|sdf|10|dock7
                    3D
 Schrodinger Suite 2020-2.
 41 44  0  0  1  0            999 V2000
   44.1261  -10.6880   10.1567 C   0  0  0  0  0  0
   43.9963  -10.7341    8.7399 O   0  0  0  0  0  0
   42.7348  -10.7898    8.1793 C   0  0  0  0  0  0
   42.6703  -10.8411    6.7883 C   0  0  0  0  0  0
   41.4425  -10.8976    6.1354 C   0  0  0  0  0  0
   40.2486  -10.9089    6.8611 C   0  0  0  0  0  0
   40.2881  -10.8531    8.2642 C   0  0  0  0  0  0
   39.0766  -10.8586    8.9354 O   0  0  0  0  0  0
   39.0590  -10.8224   10.3583 C   0  0  0  0  0  0
   41.5360  -10.7963    8.9108 C   0  0  0  0  0  0
   38.9592  -10.9496    6.1328 C   0  0  0  0  0  0
   38.4779   -9.8305    5.4560 C   0  0  0  0  0  0
   37.2511   -9.8796    4.7781 C   0  0  0  0  0  0
   36.5368  -11.1074    4.8212 C   0  0  0  0  0  0
   35.2807  -11.5194    4.2657 C   0  0  0  0  0  0
   34.4190  -10.7323    3.5031 N   0  0  0  0  0  0
   33.2318  -11.1565    2.9954 C   0  0  0  0  0  0
   32.5035  -10.4193    2.3350 O   0  0  0  0  0  0
   32.9095  -12.5430    3.3057 C   0  0  0  0  0  0
   33.6952  -13.3690    4.0406 C   0  0  0  0  0  0
   33.3131  -14.5779    4.2552 O   0  5  0  0  0  0
   34.9594  -12.8423    4.5608 C   0  0  0  0  0  0
   36.1644  -13.6539    5.5281 S   0  0  0  0  0  0
   37.1341  -12.1888    5.5472 C   0  0  0  0  0  0
   38.3021  -12.1336    6.1860 N   0  0  0  0  0  0
   36.7548   -8.6321    4.0430 C   0  0  0  0  0  0
   35.5167   -8.3392    4.4404 F   0  0  0  0  0  0
   36.7277   -8.7857    2.7173 F   0  0  0  0  0  0
   37.5566   -7.6027    4.3145 F   0  0  0  0  0  0
   45.1830  -10.6499   10.4198 H   0  0  0  0  0  0
   43.7013  -11.5760   10.6270 H   0  0  0  0  0  0
   43.6502   -9.7989   10.5730 H   0  0  0  0  0  0
   43.5807  -10.8357    6.2066 H   0  0  0  0  0  0
   41.4198  -10.9328    5.0556 H   0  0  0  0  0  0
   38.0257  -10.8423   10.7044 H   0  0  0  0  0  0
   39.5175   -9.9100   10.7426 H   0  0  0  0  0  0
   39.5668  -11.6881   10.7862 H   0  0  0  0  0  0
   41.5755  -10.7548    9.9871 H   0  0  0  0  0  0
   39.0675   -8.9249    5.4651 H   0  0  0  0  0  0
   34.6523   -9.7722    3.2942 H   0  0  0  0  0  0
   31.9738  -12.9163    2.9126 H   0  0  0  0  0  0
  1  2  1  0  0  0
  1 30  1  0  0  0
  1 31  1  0  0  0
  1 32  1  0  0  0
  2  3  1  0  0  0
  3  4  2  0  0  0
  3 10  1  0  0  0
  4  5  1  0  0  0
  4 33  1  0  0  0
  5  6  2  0  0  0
  5 34  1  0  0  0
  6  7  1  0  0  0
  6 11  1  0  0  0
  7  8  1  0  0  0
  7 10  2  0  0  0
  8  9  1  0  0  0
  9 35  1  0  0  0
  9 36  1  0  0  0
  9 37  1  0  0  0
 10 38  1  0  0  0
 11 12  2  0  0  0
 11 25  1  0  0  0
 12 13  1  0  0  0
 12 39  1  0  0  0
 13 14  2  0  0  0
 13 26  1  0  0  0
 14 15  1  0  0  0
 14 24  1  0  0  0
 15 16  1  0  0  0
 15 22  2  0  0  0
 16 17  1  0  0  0
 16 40  1  0  0  0
 17 18  2  0  0  0
 17 19  1  0  0  0
 19 20  2  0  0  0
 19 41  1  0  0  0
 20 21  1  0  0  0
 20 22  1  0  0  0
 22 23  1  0  0  0
 23 24  1  0  0  0
 24 25  2  0  0  0
 26 27  1  0  0  0
 26 28  1  0  0  0
 26 29  1  0  0  0
M  CHG  1  21  -1
M  END
> <Gold.Chemscore.Fitness>
37.464

> <Gold.Version>
5.8.1

> <Gold.Chemscore.DG>
-30.9354

> <Gold.Chemscore.Hbond.Weighted>
-3.3399

> <Gold.Chemscore.Lipo.Weighted>
-25.287

> <Gold.Chemscore.Internal_Hbond.Weighted>
0

> <Gold.Chemscore.DEClash.Weighted>
2.1003

> <Gold.Chemscore.DEInternal.Weighted>
0.0794

> <Gold.Chemscore.Internal.Correction.Weighted>
2.8502

> <Gold.Chemscore.Constraint>
-8.7083

> <Gold.ChemScore.Ligand.Score.Contributions>
AtomID ChemScore.Hbond ChemScore.Metal ChemScore.Lipo ChemScore.DEClash ChemScore.total
1         0.00     0.00     1.95     0.00     0.23
3         0.00     0.00     3.80     0.00     0.45
4         0.00     0.00     3.96     0.00     0.46
5         0.00     0.00     5.06     0.04     0.56
6         0.00     0.00     6.89     0.00     0.81
7         0.00     0.00     7.54     0.00     0.88
9         0.00     0.00    11.75     0.00     1.37
10        0.00     0.00     5.33     0.00     0.62
11        0.00     0.00     9.18     0.00     1.07
12        0.00     0.00     7.27     0.00     0.85
13        0.00     0.00     9.64     0.00     1.13
14        0.00     0.00    14.38     0.00     1.68
15        0.00     0.00    17.89     0.00     2.09
17        0.00     0.00     0.00     0.00    -0.00
18        1.00     0.00     0.00     0.01     3.33
19        0.00     0.00    23.09     0.00     2.70
20        0.00     0.00    23.71     0.00     2.77
22        0.00     0.00    21.09     0.00     2.47
23        0.00     0.00    19.60     0.22     2.08
24        0.00     0.00    15.69     0.00     1.84
25        0.00     0.00     0.00     0.00    -0.00
26        0.00     0.00     7.86     0.01     0.91
27        0.00     0.00     0.00     1.82    -1.82

> <gold pose ID>
ligprep_Molport_list.sdf:10|Molport_ligands|sdf|10|dock7

$$$$
ligprep_Molport_list.sdf:10|Molport_ligands|sdf|10|dock5
                    3D
 Schrodinger Suite 2020-2.
 41 44  0  0  1  0            999 V2000
   34.2611  -16.2753    5.5721 C   0  0  0  0  0  0
   33.3009  -15.6206    4.7503 O   0  0  0  0  0  0
   33.5172  -14.3090    4.3735 C   0  0  0  0  0  0
   32.5054  -13.6945    3.6385 C   0  0  0  0  0  0
   32.6361  -12.3754    3.2143 C   0  0  0  0  0  0
   33.7827  -11.6380    3.5204 C   0  0  0  0  0  0
   34.8183  -12.2376    4.2561 C   0  0  0  0  0  0
   35.9364  -11.4660    4.5256 O   0  0  0  0  0  0
   36.9986  -12.0109    5.3009 C   0  0  0  0  0  0
   34.6726  -13.5714    4.6785 C   0  0  0  0  0  0
   33.8967  -10.2427    3.0358 C   0  0  0  0  0  0
   34.9807   -9.4423    3.3915 C   0  0  0  0  0  0
   35.0718   -8.1200    2.9334 C   0  0  0  0  0  0
   34.0172   -7.6477    2.1060 C   0  0  0  0  0  0
   33.7719   -6.3850    1.4724 C   0  0  0  0  0  0
   34.5857   -5.2551    1.5440 N   0  0  0  0  0  0
   34.3185   -4.0714    0.9321 C   0  0  0  0  0  0
   35.0655   -3.1010    1.0335 O   0  0  0  0  0  0
   33.0827   -4.0620    0.1607 C   0  0  0  0  0  0
   32.2407   -5.1191    0.0448 C   0  0  0  0  0  0
   31.1735   -5.0013   -0.6628 O   0  5  0  0  0  0
   32.5896   -6.3626    0.7362 C   0  0  0  0  0  0
   31.7145   -7.8722    0.7757 S   0  0  0  0  0  0
   32.9571   -8.5642    1.8072 C   0  0  0  0  0  0
   32.8805   -9.8204    2.2449 N   0  0  0  0  0  0
   36.2781   -7.2707    3.3417 C   0  0  0  0  0  0
   37.0474   -7.0419    2.2775 F   0  0  0  0  0  0
   37.0370   -7.8572    4.2700 F   0  0  0  0  0  0
   35.8597   -6.1065    3.8377 F   0  0  0  0  0  0
   33.9294  -17.2943    5.7707 H   0  0  0  0  0  0
   34.3748  -15.7726    6.5337 H   0  0  0  0  0  0
   35.2336  -16.3348    5.0811 H   0  0  0  0  0  0
   31.6089  -14.2447    3.3921 H   0  0  0  0  0  0
   31.8384  -11.9233    2.6424 H   0  0  0  0  0  0
   37.7806  -11.2603    5.4149 H   0  0  0  0  0  0
   37.4450  -12.8803    4.8158 H   0  0  0  0  0  0
   36.6613  -12.2901    6.3002 H   0  0  0  0  0  0
   35.4618  -14.0387    5.2447 H   0  0  0  0  0  0
   35.7478   -9.8602    4.0276 H   0  0  0  0  0  0
   35.4401   -5.2727    2.0820 H   0  0  0  0  0  0
   32.8412   -3.1371   -0.3449 H   0  0  0  0  0  0
  1  2  1  0  0  0
  1 30  1  0  0  0
  1 31  1  0  0  0
  1 32  1  0  0  0
  2  3  1  0  0  0
  3  4  2  0  0  0
  3 10  1  0  0  0
  4  5  1  0  0  0
  4 33  1  0  0  0
  5  6  2  0  0  0
  5 34  1  0  0  0
  6  7  1  0  0  0
  6 11  1  0  0  0
  7  8  1  0  0  0
  7 10  2  0  0  0
  8  9  1  0  0  0
  9 35  1  0  0  0
  9 36  1  0  0  0
  9 37  1  0  0  0
 10 38  1  0  0  0
 11 12  2  0  0  0
 11 25  1  0  0  0
 12 13  1  0  0  0
 12 39  1  0  0  0
 13 14  2  0  0  0
 13 26  1  0  0  0
 14 15  1  0  0  0
 14 24  1  0  0  0
 15 16  1  0  0  0
 15 22  2  0  0  0
 16 17  1  0  0  0
 16 40  1  0  0  0
 17 18  2  0  0  0
 17 19  1  0  0  0
 19 20  2  0  0  0
 19 41  1  0  0  0
 20 21  1  0  0  0
 20 22  1  0  0  0
 22 23  1  0  0  0
 23 24  1  0  0  0
 24 25  2  0  0  0
 26 27  1  0  0  0
 26 28  1  0  0  0
 26 29  1  0  0  0
M  CHG  1  21  -1
M  END
> <Gold.Chemscore.Fitness>
37.3427

> <Gold.Version>
5.8.1

> <Gold.Chemscore.DG>
-33.4834

> <Gold.Chemscore.Hbond.Weighted>
-0.0446

> <Gold.Chemscore.Lipo.Weighted>
-31.1304

> <Gold.Chemscore.Internal_Hbond.Weighted>
0

> <Gold.Chemscore.DEClash.Weighted>
5.0029

> <Gold.Chemscore.DEInternal.Weighted>
0.6158

> <Gold.Chemscore.Internal.Correction.Weighted>
2.8502

> <Gold.Chemscore.Constraint>
-9.478

> <Gold.ChemScore.Ligand.Score.Contributions>
AtomID ChemScore.Hbond ChemScore.Metal ChemScore.Lipo ChemScore.DEClash ChemScore.total
1         0.00     0.00    28.13     0.00     3.29
2         0.00     0.00     0.00     0.00    -0.00
3         0.00     0.00    25.57     0.00     2.99
4         0.00     0.00    25.29     0.04     2.92
5         0.00     0.00    23.01     0.00     2.69
6         0.00     0.00    20.83     0.00     2.44
7         0.00     0.00    20.44     0.00     2.39
9         0.00     0.00    15.68     0.00     1.83
10        0.00     0.00    22.54     0.00     2.64
11        0.00     0.00    16.68     0.00     1.95
12        0.00     0.00    13.10     0.09     1.44
13        0.00     0.00     9.33     0.00     1.09
14        0.00     0.00     8.57     0.00     1.00
15        0.00     0.00     4.82     0.00     0.56
19        0.00     0.00     0.71     0.00     0.08
20        0.00     0.00     2.00     0.00     0.23
22        0.00     0.00     4.20     0.00     0.49
23        0.00     0.00     7.32     4.23    -3.38
24        0.00     0.00    11.06     0.00     1.29
25        0.01     0.00     0.00     0.00     0.04
26        0.00     0.00     6.21     0.00     0.73
28        0.00     0.00     0.00     0.12    -0.12
29        0.00     0.00     0.00     0.52    -0.52

> <gold pose ID>
ligprep_Molport_list.sdf:10|Molport_ligands|sdf|10|dock5

$$$$
ligprep_Molport_list.sdf:10|Molport_ligands|sdf|10|dock10
                    3D
 Schrodinger Suite 2020-2.
 41 44  0  0  1  0            999 V2000
   34.0567  -15.7611    5.5767 C   0  0  0  0  0  0
   33.1904  -15.1687    4.6150 O   0  0  0  0  0  0
   33.4312  -13.8742    4.1965 C   0  0  0  0  0  0
   32.4567  -13.2850    3.3936 C   0  0  0  0  0  0
   32.6140  -11.9845    2.9236 C   0  0  0  0  0  0
   33.7505  -11.2405    3.2508 C   0  0  0  0  0  0
   34.7489  -11.8148    4.0549 C   0  0  0  0  0  0
   35.8588  -11.0380    4.3430 O   0  0  0  0  0  0
   36.9507  -11.6064    5.0578 C   0  0  0  0  0  0
   34.5766  -13.1301    4.5230 C   0  0  0  0  0  0
   33.8944   -9.8662    2.7168 C   0  0  0  0  0  0
   34.9328   -9.0356    3.1341 C   0  0  0  0  0  0
   35.0522   -7.7333    2.6276 C   0  0  0  0  0  0
   34.0735   -7.3127    1.6869 C   0  0  0  0  0  0
   33.8747   -6.0824    0.9777 C   0  0  0  0  0  0
   34.6668   -4.9390    1.0729 N   0  0  0  0  0  0
   34.4451   -3.7870    0.3868 C   0  0  0  0  0  0
   35.1696   -2.8025    0.5127 O   0  0  0  0  0  0
   33.2855   -3.8289   -0.4942 C   0  0  0  0  0  0
   32.4687   -4.9019   -0.6394 C   0  0  0  0  0  0
   31.4700   -4.8303   -1.4463 O   0  5  0  0  0  0
   32.7651   -6.1090    0.1360 C   0  0  0  0  0  0
   31.9055   -7.6278    0.1626 S   0  0  0  0  0  0
   33.0549   -8.2564    1.3335 C   0  0  0  0  0  0
   32.9511   -9.4933    1.8181 N   0  0  0  0  0  0
   36.2070   -6.8499    3.1063 C   0  0  0  0  0  0
   35.7285   -5.6910    3.5586 F   0  0  0  0  0  0
   37.0862   -6.5742    2.1404 F   0  0  0  0  0  0
   36.8650   -7.4651    4.0886 F   0  0  0  0  0  0
   33.7181  -16.7749    5.7894 H   0  0  0  0  0  0
   34.0501  -15.2075    6.5167 H   0  0  0  0  0  0
   35.0808  -15.8263    5.2057 H   0  0  0  0  0  0
   31.5685  -13.8407    3.1297 H   0  0  0  0  0  0
   31.8452  -11.5520    2.2994 H   0  0  0  0  0  0
   37.7209  -10.8481    5.1977 H   0  0  0  0  0  0
   37.4008  -12.4359    4.5105 H   0  0  0  0  0  0
   36.6444  -11.9516    6.0465 H   0  0  0  0  0  0
   35.3370  -13.5779    5.1417 H   0  0  0  0  0  0
   35.6423   -9.4143    3.8558 H   0  0  0  0  0  0
   35.4682   -4.9209    1.6871 H   0  0  0  0  0  0
   33.0821   -2.9304   -1.0606 H   0  0  0  0  0  0
  1  2  1  0  0  0
  1 30  1  0  0  0
  1 31  1  0  0  0
  1 32  1  0  0  0
  2  3  1  0  0  0
  3  4  2  0  0  0
  3 10  1  0  0  0
  4  5  1  0  0  0
  4 33  1  0  0  0
  5  6  2  0  0  0
  5 34  1  0  0  0
  6  7  1  0  0  0
  6 11  1  0  0  0
  7  8  1  0  0  0
  7 10  2  0  0  0
  8  9  1  0  0  0
  9 35  1  0  0  0
  9 36  1  0  0  0
  9 37  1  0  0  0
 10 38  1  0  0  0
 11 12  2  0  0  0
 11 25  1  0  0  0
 12 13  1  0  0  0
 12 39  1  0  0  0
 13 14  2  0  0  0
 13 26  1  0  0  0
 14 15  1  0  0  0
 14 24  1  0  0  0
 15 16  1  0  0  0
 15 22  2  0  0  0
 16 17  1  0  0  0
 16 40  1  0  0  0
 17 18  2  0  0  0
 17 19  1  0  0  0
 19 20  2  0  0  0
 19 41  1  0  0  0
 20 21  1  0  0  0
 20 22  1  0  0  0
 22 23  1  0  0  0
 23 24  1  0  0  0
 24 25  2  0  0  0
 26 27  1  0  0  0
 26 28  1  0  0  0
 26 29  1  0  0  0
M  CHG  1  21  -1
M  END
> <Gold.Chemscore.Fitness>
37.2519

> <Gold.Version>
5.8.1

> <Gold.Chemscore.DG>
-31.7659

> <Gold.Chemscore.Hbond.Weighted>
-0.5845

> <Gold.Chemscore.Lipo.Weighted>
-28.873

> <Gold.Chemscore.Internal_Hbond.Weighted>
0

> <Gold.Chemscore.DEClash.Weighted>
3.4529

> <Gold.Chemscore.DEInternal.Weighted>
0.5676

> <Gold.Chemscore.Internal.Correction.Weighted>
2.8211

> <Gold.Chemscore.Constraint>
-9.5066

> <Gold.ChemScore.Ligand.Score.Contributions>
AtomID ChemScore.Hbond ChemScore.Metal ChemScore.Lipo ChemScore.DEClash ChemScore.total
1         0.00     0.00    27.58     0.01     3.22
2         0.00     0.00     0.00     0.21    -0.21
3         0.00     0.00    25.11     0.00     2.94
4         0.00     0.00    24.63     0.20     2.68
5         0.00     0.00    21.67     0.00     2.54
6         0.00     0.00    19.65     0.00     2.30
7         0.00     0.00    19.65     0.00     2.30
9         0.00     0.00    14.77     0.00     1.73
10        0.00     0.00    22.22     0.00     2.60
11        0.00     0.00    15.48     0.00     1.81
12        0.00     0.00    12.03     0.00     1.41
13        0.00     0.00     8.00     0.00     0.94
14        0.00     0.00     6.66     0.00     0.78
15        0.00     0.00     3.20     0.00     0.37
19        0.00     0.00     0.42     0.00     0.05
20        0.00     0.00     1.33     0.00     0.16
22        0.00     0.00     3.04     0.00     0.36
23        0.00     0.00     5.96     2.42    -1.72
24        0.00     0.00     9.30     0.00     1.09
25        0.17     0.00     0.00     0.00     0.58
26        0.00     0.00     5.43     0.00     0.63
27        0.00     0.00     0.00     0.60    -0.60
29        0.00     0.00     0.00     0.00    -0.00

> <gold pose ID>
ligprep_Molport_list.sdf:10|Molport_ligands|sdf|10|dock10

$$$$
ligprep_Molport_list.sdf:11|Molport_ligands|sdf|11|dock4
                    3D
 Schrodinger Suite 2020-2.
 29 32  0  0  1  0            999 V2000
   32.5004   -8.1459    0.8364 O   0  5  0  0  0  0
   33.5306   -8.3530    1.5776 C   0  0  0  0  0  0
   34.4686   -7.3801    1.7040 C   0  0  0  0  0  0
   35.6765   -7.4954    2.5128 C   0  0  0  0  0  0
   36.5150   -6.6030    2.6151 O   0  0  0  0  0  0
   35.8085   -8.6853    3.1571 N   0  0  0  0  0  0
   34.8860   -9.7252    3.0720 C   0  0  0  0  0  0
   33.7351   -9.6108    2.2992 C   0  0  0  0  0  0
   32.7253  -11.0399    2.3434 S   0  0  0  0  0  0
   33.8728  -11.8176    3.4272 C   0  0  0  0  0  0
   33.6964  -13.0527    3.9003 N   0  0  0  0  0  0
   34.6549  -13.5514    4.7343 C   0  0  0  0  0  0
   35.7885  -12.8017    5.0883 C   0  0  0  0  0  0
   35.9652  -11.5118    4.5896 C   0  0  0  0  0  0
   34.9880  -10.9836    3.7299 C   0  0  0  0  0  0
   34.4189  -14.9472    5.2460 C   0  0  0  0  0  0
   33.4624  -15.8155    4.6878 C   0  0  0  0  0  0
   33.3022  -17.0968    5.2186 C   0  0  0  0  0  0
   34.0921  -17.4989    6.2947 C   0  0  0  0  0  0
   35.0224  -16.5961    6.8055 C   0  0  0  0  0  0
   35.1891  -15.3479    6.3000 N   0  0  0  0  0  0
   34.3334   -6.4448    1.1779 H   0  0  0  0  0  0
   36.6407   -8.7786    3.7208 H   0  0  0  0  0  0
   36.5409  -13.2063    5.7492 H   0  0  0  0  0  0
   36.8369  -10.9351    4.8616 H   0  0  0  0  0  0
   32.8458  -15.5129    3.8541 H   0  0  0  0  0  0
   32.5713  -17.7721    4.7986 H   0  0  0  0  0  0
   33.9854  -18.4855    6.7214 H   0  0  0  0  0  0
   35.6541  -16.8675    7.6385 H   0  0  0  0  0  0
  1  2  1  0  0  0
  2  3  2  0  0  0
  2  8  1  0  0  0
  3  4  1  0  0  0
  3 22  1  0  0  0
  4  5  2  0  0  0
  4  6  1  0  0  0
  6  7  1  0  0  0
  6 23  1  0  0  0
  7  8  2  0  0  0
  7 15  1  0  0  0
  8  9  1  0  0  0
  9 10  1  0  0  0
 10 11  2  0  0  0
 10 15  1  0  0  0
 11 12  1  0  0  0
 12 13  2  0  0  0
 12 16  1  0  0  0
 13 14  1  0  0  0
 13 24  1  0  0  0
 14 15  2  0  0  0
 14 25  1  0  0  0
 16 17  2  0  0  0
 16 21  1  0  0  0
 17 18  1  0  0  0
 17 26  1  0  0  0
 18 19  2  0  0  0
 18 27  1  0  0  0
 19 20  1  0  0  0
 19 28  1  0  0  0
 20 21  2  0  0  0
 20 29  1  0  0  0
M  CHG  1   1  -1
M  END
> <Gold.Chemscore.Fitness>
45.3667

> <Gold.Version>
5.8.1

> <Gold.Chemscore.DG>
-43.7843

> <Gold.Chemscore.Hbond.Weighted>
-3.2964

> <Gold.Chemscore.Lipo.Weighted>
-35.008

> <Gold.Chemscore.Internal_Hbond.Weighted>
0

> <Gold.Chemscore.DEClash.Weighted>
6.3599

> <Gold.Chemscore.DEInternal.Weighted>
0.0915

> <Gold.Chemscore.Internal.Correction.Weighted>
0

> <Gold.Chemscore.Constraint>
-8.0338

> <Gold.ChemScore.Ligand.Score.Contributions>
AtomID ChemScore.Hbond ChemScore.Metal ChemScore.Lipo ChemScore.DEClash ChemScore.total
1         0.99     0.00     0.00     0.20     3.09
2         0.00     0.00     9.89     0.00     1.16
3         0.00     0.00     6.27     0.00     0.73
7         0.00     0.00    13.76     0.00     1.61
8         0.00     0.00    14.39     0.00     1.68
9         0.00     0.00    18.36     1.43     0.72
10        0.00     0.00    20.68     0.07     2.35
12        0.00     0.00    22.62     0.00     2.65
13        0.00     0.00    19.40     0.00     2.27
14        0.00     0.00    16.47     0.00     1.93
15        0.00     0.00    16.99     0.00     1.99
16        0.00     0.00    24.81     0.03     2.88
17        0.00     0.00    28.14     0.07     3.23
18        0.00     0.00    31.11     0.35     3.29
19        0.00     0.00    29.38     3.42     0.02
20        0.00     0.00    25.75     0.79     2.22
21        0.00     0.00     0.00     0.00    -0.00

> <gold pose ID>
ligprep_Molport_list.sdf:11|Molport_ligands|sdf|11|dock4

$$$$
ligprep_Molport_list.sdf:11|Molport_ligands|sdf|11|dock2
                    3D
 Schrodinger Suite 2020-2.
 29 32  0  0  1  0            999 V2000
   32.5031   -8.1678    0.9366 O   0  5  0  0  0  0
   33.4925   -8.3482    1.7379 C   0  0  0  0  0  0
   34.3688   -7.3347    1.9553 C   0  0  0  0  0  0
   35.5262   -7.4169    2.8386 C   0  0  0  0  0  0
   36.3091   -6.4879    3.0231 O   0  0  0  0  0  0
   35.6776   -8.6196    3.4543 N   0  0  0  0  0  0
   34.8175   -9.7005    3.2770 C   0  0  0  0  0  0
   33.7146   -9.6176    2.4334 C   0  0  0  0  0  0
   32.7793  -11.0958    2.3675 S   0  0  0  0  0  0
   33.8929  -11.8513    3.5012 C   0  0  0  0  0  0
   33.7504  -13.1087    3.9242 N   0  0  0  0  0  0
   34.6774  -13.5868    4.8046 C   0  0  0  0  0  0
   35.7455  -12.7940    5.2553 C   0  0  0  0  0  0
   35.8872  -11.4811    4.8084 C   0  0  0  0  0  0
   34.9417  -10.9736    3.9021 C   0  0  0  0  0  0
   34.4813  -15.0089    5.2574 C   0  0  0  0  0  0
   33.4387  -15.8264    4.7827 C   0  0  0  0  0  0
   33.3228  -17.1365    5.2511 C   0  0  0  0  0  0
   34.2416  -17.6174    6.1828 C   0  0  0  0  0  0
   35.2526  -16.7621    6.6163 C   0  0  0  0  0  0
   35.3776  -15.4866    6.1700 N   0  0  0  0  0  0
   34.2197   -6.3902    1.4498 H   0  0  0  0  0  0
   36.4753   -8.6903    4.0689 H   0  0  0  0  0  0
   36.4734  -13.1826    5.9522 H   0  0  0  0  0  0
   36.7084  -10.8712    5.1548 H   0  0  0  0  0  0
   32.7221  -15.4627    4.0609 H   0  0  0  0  0  0
   32.5268  -17.7733    4.8941 H   0  0  0  0  0  0
   34.1713  -18.6275    6.5589 H   0  0  0  0  0  0
   35.9848  -17.0948    7.3372 H   0  0  0  0  0  0
  1  2  1  0  0  0
  2  3  2  0  0  0
  2  8  1  0  0  0
  3  4  1  0  0  0
  3 22  1  0  0  0
  4  5  2  0  0  0
  4  6  1  0  0  0
  6  7  1  0  0  0
  6 23  1  0  0  0
  7  8  2  0  0  0
  7 15  1  0  0  0
  8  9  1  0  0  0
  9 10  1  0  0  0
 10 11  2  0  0  0
 10 15  1  0  0  0
 11 12  1  0  0  0
 12 13  2  0  0  0
 12 16  1  0  0  0
 13 14  1  0  0  0
 13 24  1  0  0  0
 14 15  2  0  0  0
 14 25  1  0  0  0
 16 17  2  0  0  0
 16 21  1  0  0  0
 17 18  1  0  0  0
 17 26  1  0  0  0
 18 19  2  0  0  0
 18 27  1  0  0  0
 19 20  1  0  0  0
 19 28  1  0  0  0
 20 21  2  0  0  0
 20 29  1  0  0  0
M  CHG  1   1  -1
M  END
> <Gold.Chemscore.Fitness>
43.8749

> <Gold.Version>
5.8.1

> <Gold.Chemscore.DG>
-44.0446

> <Gold.Chemscore.Hbond.Weighted>
-3.2969

> <Gold.Chemscore.Lipo.Weighted>
-35.2677

> <Gold.Chemscore.Internal_Hbond.Weighted>
0

> <Gold.Chemscore.DEClash.Weighted>
8.1774

> <Gold.Chemscore.DEInternal.Weighted>
0.0016

> <Gold.Chemscore.Internal.Correction.Weighted>
0

> <Gold.Chemscore.Constraint>
-8.0094

> <Gold.ChemScore.Ligand.Score.Contributions>
AtomID ChemScore.Hbond ChemScore.Metal ChemScore.Lipo ChemScore.DEClash ChemScore.total
1         0.99     0.00     0.00     0.22     3.08
2         0.00     0.00    10.27     0.00     1.20
3         0.00     0.00     6.80     0.00     0.80
7         0.00     0.00    14.00     0.00     1.64
8         0.00     0.00    14.69     0.00     1.72
9         0.00     0.00    18.50     1.43     0.74
10        0.00     0.00    20.90     0.00     2.45
12        0.00     0.00    22.70     0.00     2.66
13        0.00     0.00    19.61     0.00     2.29
14        0.00     0.00    16.57     0.00     1.94
15        0.00     0.00    17.22     0.00     2.02
16        0.00     0.00    24.84     0.03     2.88
17        0.00     0.00    28.27     0.04     3.27
18        0.00     0.00    31.11     1.10     2.54
19        0.00     0.00    29.15     3.56    -0.15
20        0.00     0.00    25.67     1.43     1.58
21        0.00     0.00     0.00     0.38    -0.38

> <gold pose ID>
ligprep_Molport_list.sdf:11|Molport_ligands|sdf|11|dock2

$$$$
ligprep_Molport_list.sdf:11|Molport_ligands|sdf|11|dock9
                    3D
 Schrodinger Suite 2020-2.
 29 32  0  0  1  0            999 V2000
   32.5320   -8.1002    0.9125 O   0  5  0  0  0  0
   33.5952   -8.3205    1.6015 C   0  0  0  0  0  0
   34.5362   -7.3480    1.7064 C   0  0  0  0  0  0
   35.7798   -7.4775    2.4569 C   0  0  0  0  0  0
   36.6205   -6.5852    2.5405 O   0  0  0  0  0  0
   35.9431   -8.6808    3.0685 N   0  0  0  0  0  0
   35.0195   -9.7211    3.0026 C   0  0  0  0  0  0
   33.8345   -9.5931    2.2855 C   0  0  0  0  0  0
   32.8302  -11.0256    2.3442 S   0  0  0  0  0  0
   34.0271  -11.8235    3.3577 C   0  0  0  0  0  0
   33.8746  -13.0691    3.8112 N   0  0  0  0  0  0
   34.8708  -13.5831    4.5899 C   0  0  0  0  0  0
   36.0180  -12.8381    4.9083 C   0  0  0  0  0  0
   36.1696  -11.5373    4.4304 C   0  0  0  0  0  0
   35.1535  -10.9932    3.6276 C   0  0  0  0  0  0
   34.6608  -14.9903    5.0812 C   0  0  0  0  0  0
   35.4736  -15.5876    6.0626 C   0  0  0  0  0  0
   35.2151  -16.8988    6.4665 C   0  0  0  0  0  0
   34.1551  -17.5988    5.8922 C   0  0  0  0  0  0
   33.3848  -16.9557    4.9254 C   0  0  0  0  0  0
   33.6242  -15.6820    4.5230 N   0  0  0  0  0  0
   34.3756   -6.4019    1.2075 H   0  0  0  0  0  0
   36.8001   -8.7840    3.5917 H   0  0  0  0  0  0
   36.8003  -13.2549    5.5254 H   0  0  0  0  0  0
   37.0517  -10.9642    4.6751 H   0  0  0  0  0  0
   36.2971  -15.0533    6.5133 H   0  0  0  0  0  0
   35.8320  -17.3678    7.2188 H   0  0  0  0  0  0
   33.9366  -18.6141    6.1893 H   0  0  0  0  0  0
   32.5545  -17.4621    4.4555 H   0  0  0  0  0  0
  1  2  1  0  0  0
  2  3  2  0  0  0
  2  8  1  0  0  0
  3  4  1  0  0  0
  3 22  1  0  0  0
  4  5  2  0  0  0
  4  6  1  0  0  0
  6  7  1  0  0  0
  6 23  1  0  0  0
  7  8  2  0  0  0
  7 15  1  0  0  0
  8  9  1  0  0  0
  9 10  1  0  0  0
 10 11  2  0  0  0
 10 15  1  0  0  0
 11 12  1  0  0  0
 12 13  2  0  0  0
 12 16  1  0  0  0
 13 14  1  0  0  0
 13 24  1  0  0  0
 14 15  2  0  0  0
 14 25  1  0  0  0
 16 17  2  0  0  0
 16 21  1  0  0  0
 17 18  1  0  0  0
 17 26  1  0  0  0
 18 19  2  0  0  0
 18 27  1  0  0  0
 19 20  1  0  0  0
 19 28  1  0  0  0
 20 21  2  0  0  0
 20 29  1  0  0  0
M  CHG  1   1  -1
M  END
> <Gold.Chemscore.Fitness>
43.5157

> <Gold.Version>
5.8.1

> <Gold.Chemscore.DG>
-42.6363

> <Gold.Chemscore.Hbond.Weighted>
-3.1932

> <Gold.Chemscore.Lipo.Weighted>
-33.9631

> <Gold.Chemscore.Internal_Hbond.Weighted>
0

> <Gold.Chemscore.DEClash.Weighted>
6.6108

> <Gold.Chemscore.DEInternal.Weighted>
0.0517

> <Gold.Chemscore.Internal.Correction.Weighted>
0

> <Gold.Chemscore.Constraint>
-7.5419

> <Gold.ChemScore.Ligand.Score.Contributions>
AtomID ChemScore.Hbond ChemScore.Metal ChemScore.Lipo ChemScore.DEClash ChemScore.total
1         0.96     0.00     0.00     0.22     2.97
2         0.00     0.00     9.82     0.00     1.15
3         0.00     0.00     6.07     0.00     0.71
7         0.00     0.00    13.40     0.00     1.57
8         0.00     0.00    14.10     0.00     1.65
9         0.00     0.00    18.28     1.43     0.71
10        0.00     0.00    20.08     0.29     2.05
11        0.00     0.00     0.00     0.04    -0.04
12        0.00     0.00    21.84     0.00     2.56
13        0.00     0.00    18.68     0.00     2.19
14        0.00     0.00    15.97     0.00     1.87
15        0.00     0.00    16.49     0.03     1.90
16        0.00     0.00    24.16     0.00     2.83
17        0.00     0.00    23.61     0.91     1.85
18        0.00     0.00    25.95     1.37     1.66
19        0.00     0.00    29.71     2.18     1.29
20        0.00     0.00    30.59     0.12     3.46
21        0.00     0.00     0.00     0.01    -0.01

> <gold pose ID>
ligprep_Molport_list.sdf:11|Molport_ligands|sdf|11|dock9

$$$$
ligprep_Molport_list.sdf:12|Molport_ligands|sdf|12|dock5
                    3D
 Schrodinger Suite 2020-2.
 35 37  0  0  1  0            999 V2000
   34.5380  -17.6731    5.8641 C   0  0  0  0  0  0
   34.6611  -16.3134    5.1476 C   0  0  0  0  0  0
   33.3150  -15.8985    4.5259 C   0  0  0  0  0  0
   35.2102  -15.1994    6.0735 C   0  0  0  0  0  0
   35.3914  -13.8462    5.3929 C   0  0  0  0  0  0
   36.5947  -13.1505    5.5000 C   0  0  0  0  0  0
   36.7571  -11.9084    4.8685 C   0  0  0  0  0  0
   35.6515  -11.4091    4.1276 C   0  0  0  0  0  0
   35.4542  -10.2081    3.3693 C   0  0  0  0  0  0
   36.3856   -9.1872    3.1858 N   0  0  0  0  0  0
   36.1624   -8.0603    2.4597 C   0  0  0  0  0  0
   37.0150   -7.1843    2.3354 O   0  0  0  0  0  0
   34.8383   -7.9890    1.8565 C   0  0  0  0  0  0
   33.8805   -8.9397    1.9910 C   0  0  0  0  0  0
   32.7424   -8.7750    1.4152 O   0  5  0  0  0  0
   34.1887  -10.1263    2.7927 C   0  0  0  0  0  0
   33.1718  -11.5004    3.1442 S   0  0  0  0  0  0
   34.4680  -12.2160    4.0901 C   0  0  0  0  0  0
   34.3208  -13.3942    4.6950 N   0  0  0  0  0  0
   38.0909  -11.1700    5.0063 C   0  0  0  0  0  0
   38.8627  -11.7994    5.8923 F   0  0  0  0  0  0
   38.7122  -11.1409    3.8275 F   0  0  0  0  0  0
   37.9477   -9.9086    5.4188 F   0  0  0  0  0  0
   33.8513  -17.6171    6.7093 H   0  0  0  0  0  0
   35.5018  -18.0157    6.2422 H   0  0  0  0  0  0
   34.1678  -18.4437    5.1870 H   0  0  0  0  0  0
   35.3633  -16.4405    4.3217 H   0  0  0  0  0  0
   32.5489  -15.7565    5.2893 H   0  0  0  0  0  0
   32.9510  -16.6540    3.8286 H   0  0  0  0  0  0
   33.4069  -14.9640    3.9711 H   0  0  0  0  0  0
   34.5325  -15.0564    6.9173 H   0  0  0  0  0  0
   36.1573  -15.5209    6.5113 H   0  0  0  0  0  0
   37.3998  -13.5838    6.0755 H   0  0  0  0  0  0
   37.3004   -9.2462    3.6090 H   0  0  0  0  0  0
   34.6278   -7.1070    1.2670 H   0  0  0  0  0  0
  1  2  1  0  0  0
  1 24  1  0  0  0
  1 25  1  0  0  0
  1 26  1  0  0  0
  2  3  1  0  0  0
  2  4  1  0  0  0
  2 27  1  0  0  0
  3 28  1  0  0  0
  3 29  1  0  0  0
  3 30  1  0  0  0
  4  5  1  0  0  0
  4 31  1  0  0  0
  4 32  1  0  0  0
  5  6  2  0  0  0
  5 19  1  0  0  0
  6  7  1  0  0  0
  6 33  1  0  0  0
  7  8  2  0  0  0
  7 20  1  0  0  0
  8  9  1  0  0  0
  8 18  1  0  0  0
  9 10  1  0  0  0
  9 16  2  0  0  0
 10 11  1  0  0  0
 10 34  1  0  0  0
 11 12  2  0  0  0
 11 13  1  0  0  0
 13 14  2  0  0  0
 13 35  1  0  0  0
 14 15  1  0  0  0
 14 16  1  0  0  0
 16 17  1  0  0  0
 17 18  1  0  0  0
 18 19  2  0  0  0
 20 21  1  0  0  0
 20 22  1  0  0  0
 20 23  1  0  0  0
M  CHG  1  15  -1
M  END
> <Gold.Chemscore.Fitness>
42.9105

> <Gold.Version>
5.8.1

> <Gold.Chemscore.DG>
-38.8159

> <Gold.Chemscore.Hbond.Weighted>
-3.3337

> <Gold.Chemscore.Lipo.Weighted>
-33.0544

> <Gold.Chemscore.Internal_Hbond.Weighted>
0

> <Gold.Chemscore.DEClash.Weighted>
1.7854

> <Gold.Chemscore.DEInternal.Weighted>
1.6027

> <Gold.Chemscore.Internal.Correction.Weighted>
1.5503

> <Gold.Chemscore.Constraint>
-7.4828

> <Gold.ChemScore.Ligand.Score.Contributions>
AtomID ChemScore.Hbond ChemScore.Metal ChemScore.Lipo ChemScore.DEClash ChemScore.total
1         0.00     0.00    28.50     1.66     1.67
2         0.00     0.00    26.98     0.01     3.15
3         0.00     0.00    28.21     0.07     3.24
4         0.00     0.00    23.53     0.00     2.75
5         0.00     0.00    21.79     0.00     2.55
6         0.00     0.00    17.96     0.05     2.05
7         0.00     0.00    15.67     0.00     1.83
8         0.00     0.00    16.64     0.00     1.95
9         0.00     0.00    13.76     0.00     1.61
13        0.00     0.00     7.68     0.00     0.90
14        0.00     0.00    11.80     0.00     1.38
15        1.00     0.00     0.00     0.00     3.33
16        0.00     0.00    15.62     0.00     1.83
17        0.00     0.00    20.68     0.00     2.42
18        0.00     0.00    21.05     0.00     2.46
20        0.00     0.00    11.25     0.00     1.32

> <gold pose ID>
ligprep_Molport_list.sdf:12|Molport_ligands|sdf|12|dock5

$$$$
ligprep_Molport_list.sdf:12|Molport_ligands|sdf|12|dock4
                    3D
 Schrodinger Suite 2020-2.
 35 37  0  0  1  0            999 V2000
   34.6001  -17.6507    5.8844 C   0  0  0  0  0  0
   34.6610  -16.2894    5.1631 C   0  0  0  0  0  0
   33.3007  -15.9440    4.5302 C   0  0  0  0  0  0
   35.1477  -15.1461    6.0882 C   0  0  0  0  0  0
   35.2887  -13.7930    5.3976 C   0  0  0  0  0  0
   36.4661  -13.0553    5.5100 C   0  0  0  0  0  0
   36.5917  -11.8137    4.8694 C   0  0  0  0  0  0
   35.4768  -11.3590    4.1139 C   0  0  0  0  0  0
   35.2454  -10.1718    3.3434 C   0  0  0  0  0  0
   36.1428   -9.1209    3.1598 N   0  0  0  0  0  0
   35.8878   -8.0084    2.4220 C   0  0  0  0  0  0
   36.7109   -7.1046    2.2982 O   0  0  0  0  0  0
   34.5679   -7.9880    1.8059 C   0  0  0  0  0  0
   33.6422   -8.9701    1.9396 C   0  0  0  0  0  0
   32.5048   -8.8496    1.3518 O   0  5  0  0  0  0
   33.9835  -10.1387    2.7544 C   0  0  0  0  0  0
   33.0112  -11.5441    3.1082 S   0  0  0  0  0  0
   34.3221  -12.2067    4.0723 C   0  0  0  0  0  0
   34.2099  -13.3842    4.6859 N   0  0  0  0  0  0
   37.8978  -11.0285    5.0132 C   0  0  0  0  0  0
   38.6935  -11.6384    5.8917 F   0  0  0  0  0  0
   38.5158  -10.9644    3.8341 F   0  0  0  0  0  0
   37.7093   -9.7775    5.4390 F   0  0  0  0  0  0
   33.9053  -17.6255    6.7246 H   0  0  0  0  0  0
   35.5770  -17.9438    6.2708 H   0  0  0  0  0  0
   34.2734  -18.4413    5.2080 H   0  0  0  0  0  0
   35.3746  -16.3848    4.3428 H   0  0  0  0  0  0
   32.5230  -15.8371    5.2875 H   0  0  0  0  0  0
   32.9795  -16.7192    3.8335 H   0  0  0  0  0  0
   33.3502  -15.0082    3.9721 H   0  0  0  0  0  0
   34.4486  -15.0221    6.9174 H   0  0  0  0  0  0
   36.0980  -15.4257    6.5471 H   0  0  0  0  0  0
   37.2802  -13.4558    6.0966 H   0  0  0  0  0  0
   37.0550   -9.1447    3.5921 H   0  0  0  0  0  0
   34.3328   -7.1187    1.2068 H   0  0  0  0  0  0
  1  2  1  0  0  0
  1 24  1  0  0  0
  1 25  1  0  0  0
  1 26  1  0  0  0
  2  3  1  0  0  0
  2  4  1  0  0  0
  2 27  1  0  0  0
  3 28  1  0  0  0
  3 29  1  0  0  0
  3 30  1  0  0  0
  4  5  1  0  0  0
  4 31  1  0  0  0
  4 32  1  0  0  0
  5  6  2  0  0  0
  5 19  1  0  0  0
  6  7  1  0  0  0
  6 33  1  0  0  0
  7  8  2  0  0  0
  7 20  1  0  0  0
  8  9  1  0  0  0
  8 18  1  0  0  0
  9 10  1  0  0  0
  9 16  2  0  0  0
 10 11  1  0  0  0
 10 34  1  0  0  0
 11 12  2  0  0  0
 11 13  1  0  0  0
 13 14  2  0  0  0
 13 35  1  0  0  0
 14 15  1  0  0  0
 14 16  1  0  0  0
 16 17  1  0  0  0
 17 18  1  0  0  0
 18 19  2  0  0  0
 20 21  1  0  0  0
 20 22  1  0  0  0
 20 23  1  0  0  0
M  CHG  1  15  -1
M  END
> <Gold.Chemscore.Fitness>
42.8655

> <Gold.Version>
5.8.1

> <Gold.Chemscore.DG>
-39.1316

> <Gold.Chemscore.Hbond.Weighted>
-3.3286

> <Gold.Chemscore.Lipo.Weighted>
-33.3753

> <Gold.Chemscore.Internal_Hbond.Weighted>
0

> <Gold.Chemscore.DEClash.Weighted>
1.87

> <Gold.Chemscore.DEInternal.Weighted>
2.1143

> <Gold.Chemscore.Internal.Correction.Weighted>
1.5503

> <Gold.Chemscore.Constraint>
-7.7182

> <Gold.ChemScore.Ligand.Score.Contributions>
AtomID ChemScore.Hbond ChemScore.Metal ChemScore.Lipo ChemScore.DEClash ChemScore.total
1         0.00     0.00    28.29     1.66     1.65
2         0.00     0.00    27.00     0.01     3.15
3         0.00     0.00    28.37     0.19     3.13
4         0.00     0.00    23.48     0.00     2.75
5         0.00     0.00    21.88     0.00     2.56
6         0.00     0.00    18.21     0.00     2.13
7         0.00     0.00    15.90     0.00     1.86
8         0.00     0.00    16.92     0.00     1.98
9         0.00     0.00    14.17     0.00     1.66
13        0.00     0.00     7.97     0.00     0.93
14        0.00     0.00    12.04     0.00     1.41
15        1.00     0.00     0.00     0.00     3.32
16        0.00     0.00    15.98     0.00     1.87
17        0.00     0.00    20.82     0.00     2.44
18        0.00     0.00    21.39     0.00     2.50
19        0.00     0.00     0.00     0.00    -0.00
20        0.00     0.00    11.33     0.00     1.33

> <gold pose ID>
ligprep_Molport_list.sdf:12|Molport_ligands|sdf|12|dock4

$$$$
ligprep_Molport_list.sdf:12|Molport_ligands|sdf|12|dock8
                    3D
 Schrodinger Suite 2020-2.
 35 37  0  0  1  0            999 V2000
   33.5020  -16.5735    4.1178 C   0  0  0  0  0  0
   33.5036  -16.0078    5.5521 C   0  0  0  0  0  0
   33.1302  -17.0997    6.5714 C   0  0  0  0  0  0
   34.8488  -15.3372    5.9267 C   0  0  0  0  0  0
   35.0695  -13.9682    5.2906 C   0  0  0  0  0  0
   36.2862  -13.3034    5.4355 C   0  0  0  0  0  0
   36.4849  -12.0466    4.8448 C   0  0  0  0  0  0
   35.4013  -11.5002    4.1047 C   0  0  0  0  0  0
   35.2414  -10.2724    3.3811 C   0  0  0  0  0  0
   36.1976   -9.2676    3.2418 N   0  0  0  0  0  0
   36.0097   -8.1143    2.5479 C   0  0  0  0  0  0
   36.8831   -7.2543    2.4622 O   0  0  0  0  0  0
   34.6962   -7.9949    1.9292 C   0  0  0  0  0  0
   33.7158   -8.9275    2.0212 C   0  0  0  0  0  0
   32.5900   -8.7197    1.4354 O   0  5  0  0  0  0
   33.9863  -10.1446    2.7902 C   0  0  0  0  0  0
   32.9344  -11.5056    3.0853 S   0  0  0  0  0  0
   34.2009  -12.2787    4.0262 C   0  0  0  0  0  0
   34.0192  -13.4712    4.5925 N   0  0  0  0  0  0
   37.8326  -11.3429    5.0234 C   0  0  0  0  0  0
   37.6371  -10.1131    5.4990 F   0  0  0  0  0  0
   38.5875  -12.0289    5.8813 F   0  0  0  0  0  0
   38.5170  -11.2312    3.8828 F   0  0  0  0  0  0
   34.2672  -17.3401    3.9912 H   0  0  0  0  0  0
   33.6888  -15.7934    3.3789 H   0  0  0  0  0  0
   32.5392  -17.0229    3.8720 H   0  0  0  0  0  0
   32.7225  -15.2473    5.6053 H   0  0  0  0  0  0
   33.8621  -17.9084    6.5771 H   0  0  0  0  0  0
   32.1566  -17.5364    6.3456 H   0  0  0  0  0  0
   33.0761  -16.6948    7.5827 H   0  0  0  0  0  0
   34.9071  -15.2112    7.0095 H   0  0  0  0  0  0
   35.6746  -16.0017    5.6654 H   0  0  0  0  0  0
   37.0733  -13.7720    6.0081 H   0  0  0  0  0  0
   37.1047   -9.3600    3.6754 H   0  0  0  0  0  0
   34.5136   -7.0909    1.3643 H   0  0  0  0  0  0
  1  2  1  0  0  0
  1 24  1  0  0  0
  1 25  1  0  0  0
  1 26  1  0  0  0
  2  3  1  0  0  0
  2  4  1  0  0  0
  2 27  1  0  0  0
  3 28  1  0  0  0
  3 29  1  0  0  0
  3 30  1  0  0  0
  4  5  1  0  0  0
  4 31  1  0  0  0
  4 32  1  0  0  0
  5  6  2  0  0  0
  5 19  1  0  0  0
  6  7  1  0  0  0
  6 33  1  0  0  0
  7  8  2  0  0  0
  7 20  1  0  0  0
  8  9  1  0  0  0
  8 18  1  0  0  0
  9 10  1  0  0  0
  9 16  2  0  0  0
 10 11  1  0  0  0
 10 34  1  0  0  0
 11 12  2  0  0  0
 11 13  1  0  0  0
 13 14  2  0  0  0
 13 35  1  0  0  0
 14 15  1  0  0  0
 14 16  1  0  0  0
 16 17  1  0  0  0
 17 18  1  0  0  0
 18 19  2  0  0  0
 20 21  1  0  0  0
 20 22  1  0  0  0
 20 23  1  0  0  0
M  CHG  1  15  -1
M  END
> <Gold.Chemscore.Fitness>
42.4956

> <Gold.Version>
5.8.1

> <Gold.Chemscore.DG>
-40.1071

> <Gold.Chemscore.Hbond.Weighted>
-3.3399

> <Gold.Chemscore.Lipo.Weighted>
-34.3394

> <Gold.Chemscore.Internal_Hbond.Weighted>
0

> <Gold.Chemscore.DEClash.Weighted>
5.1004

> <Gold.Chemscore.DEInternal.Weighted>
0.151

> <Gold.Chemscore.Internal.Correction.Weighted>
1.5503

> <Gold.Chemscore.Constraint>
-7.6398

> <Gold.ChemScore.Ligand.Score.Contributions>
AtomID ChemScore.Hbond ChemScore.Metal ChemScore.Lipo ChemScore.DEClash ChemScore.total
1         0.00     0.00    28.97     1.29     2.10
2         0.00     0.00    28.66     0.01     3.35
3         0.00     0.00    29.89     3.63    -0.13
4         0.00     0.00    24.60     0.07     2.81
5         0.00     0.00    22.39     0.00     2.62
6         0.00     0.00    18.92     0.00     2.21
7         0.00     0.00    16.54     0.00     1.94
8         0.00     0.00    17.42     0.00     2.04
9         0.00     0.00    14.46     0.00     1.69
13        0.00     0.00     8.11     0.00     0.95
14        0.00     0.00    12.00     0.00     1.40
15        1.00     0.00     0.00     0.00     3.34
16        0.00     0.00    16.12     0.00     1.89
17        0.00     0.00    20.77     0.00     2.43
18        0.00     0.00    21.79     0.00     2.55
19        0.00     0.00     0.00     0.10    -0.10
20        0.00     0.00    12.20     0.00     1.43

> <gold pose ID>
ligprep_Molport_list.sdf:12|Molport_ligands|sdf|12|dock8

$$$$
ligprep_Molport_list.sdf:13|Molport_ligands|sdf|13|dock1
                    3D
 Schrodinger Suite 2020-2.
 43 46  0  0  1  0            999 V2000
   33.3241  -17.2604    4.8265 C   0  0  0  0  0  0
   34.4431  -16.6106    5.6514 C   0  0  0  0  0  0
   34.5724  -15.1007    5.4029 C   0  0  0  0  0  0
   33.5041  -14.6844    4.5567 O   0  0  0  0  0  0
   33.5343  -13.4212    3.9976 C   0  0  0  0  0  0
   34.6918  -12.6742    4.2081 C   0  0  0  0  0  0
   34.8118  -11.3910    3.6821 C   0  0  0  0  0  0
   33.7748  -10.8231    2.9291 C   0  0  0  0  0  0
   32.6133  -11.5782    2.7225 C   0  0  0  0  0  0
   32.4898  -12.8613    3.2481 C   0  0  0  0  0  0
   33.8994   -9.4474    2.3555 C   0  0  0  0  0  0
   34.9611   -8.6042    2.6961 C   0  0  0  0  0  0
   35.0626   -7.3129    2.1576 C   0  0  0  0  0  0
   34.0412   -6.9040    1.2603 C   0  0  0  0  0  0
   33.8149   -5.6880    0.5346 C   0  0  0  0  0  0
   34.6213   -4.5510    0.5591 N   0  0  0  0  0  0
   34.3739   -3.4140   -0.1432 C   0  0  0  0  0  0
   35.1173   -2.4373   -0.0863 O   0  0  0  0  0  0
   33.1650   -3.4627   -0.9549 C   0  0  0  0  0  0
   32.3324   -4.5305   -1.0298 C   0  0  0  0  0  0
   31.2894   -4.4663   -1.7794 O   0  5  0  0  0  0
   32.6607   -5.7226   -0.2446 C   0  0  0  0  0  0
   31.7909   -7.2314   -0.1352 S   0  0  0  0  0  0
   32.9986   -7.8442    0.9840 C   0  0  0  0  0  0
   32.9127   -9.0683    1.5013 N   0  0  0  0  0  0
   36.2448   -6.4274    2.5594 C   0  0  0  0  0  0
   36.9331   -7.0150    3.5379 F   0  0  0  0  0  0
   37.0454   -6.2442    1.5098 F   0  0  0  0  0  0
   35.8695   -5.2233    2.9963 F   0  0  0  0  0  0
   33.2632  -18.3303    5.0277 H   0  0  0  0  0  0
   33.4970  -17.1352    3.7571 H   0  0  0  0  0  0
   32.3530  -16.8241    5.0631 H   0  0  0  0  0  0
   34.2579  -16.7903    6.7113 H   0  0  0  0  0  0
   35.3895  -17.1002    5.4178 H   0  0  0  0  0  0
   34.5299  -14.5648    6.3531 H   0  0  0  0  0  0
   35.5324  -14.8833    4.9308 H   0  0  0  0  0  0
   35.5058  -13.0924    4.7822 H   0  0  0  0  0  0
   35.7247  -10.8409    3.8594 H   0  0  0  0  0  0
   31.7881  -11.1719    2.1562 H   0  0  0  0  0  0
   31.5752  -13.4039    3.0636 H   0  0  0  0  0  0
   35.7073   -8.9572    3.3925 H   0  0  0  0  0  0
   35.4565   -4.5275    1.1260 H   0  0  0  0  0  0
   32.9366   -2.5743   -1.5278 H   0  0  0  0  0  0
  1  2  1  0  0  0
  1 30  1  0  0  0
  1 31  1  0  0  0
  1 32  1  0  0  0
  2  3  1  0  0  0
  2 33  1  0  0  0
  2 34  1  0  0  0
  3  4  1  0  0  0
  3 35  1  0  0  0
  3 36  1  0  0  0
  4  5  1  0  0  0
  5  6  2  0  0  0
  5 10  1  0  0  0
  6  7  1  0  0  0
  6 37  1  0  0  0
  7  8  2  0  0  0
  7 38  1  0  0  0
  8  9  1  0  0  0
  8 11  1  0  0  0
  9 10  2  0  0  0
  9 39  1  0  0  0
 10 40  1  0  0  0
 11 12  2  0  0  0
 11 25  1  0  0  0
 12 13  1  0  0  0
 12 41  1  0  0  0
 13 14  2  0  0  0
 13 26  1  0  0  0
 14 15  1  0  0  0
 14 24  1  0  0  0
 15 16  1  0  0  0
 15 22  2  0  0  0
 16 17  1  0  0  0
 16 42  1  0  0  0
 17 18  2  0  0  0
 17 19  1  0  0  0
 19 20  2  0  0  0
 19 43  1  0  0  0
 20 21  1  0  0  0
 20 22  1  0  0  0
 22 23  1  0  0  0
 23 24  1  0  0  0
 24 25  2  0  0  0
 26 27  1  0  0  0
 26 28  1  0  0  0
 26 29  1  0  0  0
M  CHG  1  21  -1
M  END
> <Gold.Chemscore.Fitness>
42.4569

> <Gold.Version>
5.8.1

> <Gold.Chemscore.DG>
-35.6964

> <Gold.Chemscore.Hbond.Weighted>
-2.3128

> <Gold.Chemscore.Lipo.Weighted>
-31.2769

> <Gold.Chemscore.Internal_Hbond.Weighted>
0

> <Gold.Chemscore.DEClash.Weighted>
1.9046

> <Gold.Chemscore.DEInternal.Weighted>
0.4234

> <Gold.Chemscore.Internal.Correction.Weighted>
1.5923

> <Gold.Chemscore.Constraint>
-9.0883

> <Gold.ChemScore.Ligand.Score.Contributions>
AtomID ChemScore.Hbond ChemScore.Metal ChemScore.Lipo ChemScore.DEClash ChemScore.total
1         0.00     0.00    31.04     0.17     3.46
2         0.00     0.00    28.00     0.00     3.28
3         0.00     0.00    24.79     0.00     2.90
4         0.00     0.00     0.00     0.10    -0.10
5         0.00     0.00    24.17     0.00     2.83
6         0.00     0.00    21.07     0.00     2.47
7         0.00     0.00    18.20     0.15     1.98
8         0.00     0.00    18.14     0.00     2.12
9         0.00     0.00    20.32     0.01     2.37
10        0.00     0.00    23.95     0.00     2.80
11        0.00     0.00    13.78     0.00     1.61
12        0.00     0.00    10.55     0.00     1.23
13        0.00     0.00     6.12     0.00     0.72
14        0.00     0.00     4.98     0.00     0.58
15        0.00     0.00     2.07     0.00     0.24
19        0.00     0.00     0.32     0.00     0.04
20        0.00     0.00     1.01     0.00     0.12
22        0.00     0.00     2.34     0.00     0.27
23        0.00     0.00     4.96     1.46    -0.88
24        0.00     0.00     7.69     0.00     0.90
25        0.69     0.00     0.00     0.00     2.31
26        0.00     0.00     3.59     0.00     0.42
29        0.00     0.00     0.00     0.02    -0.02

> <gold pose ID>
ligprep_Molport_list.sdf:13|Molport_ligands|sdf|13|dock1

$$$$
ligprep_Molport_list.sdf:13|Molport_ligands|sdf|13|dock9
                    3D
 Schrodinger Suite 2020-2.
 43 46  0  0  1  0            999 V2000
   33.9367  -17.1999    4.9343 C   0  0  0  0  0  0
   34.1547  -16.0546    5.9322 C   0  0  0  0  0  0
   34.5188  -14.7270    5.2517 C   0  0  0  0  0  0
   33.4239  -14.3163    4.4374 O   0  0  0  0  0  0
   33.4407  -13.0605    3.8613 C   0  0  0  0  0  0
   34.5651  -12.2757    4.1100 C   0  0  0  0  0  0
   34.6695  -10.9968    3.5706 C   0  0  0  0  0  0
   33.6497  -10.4712    2.7652 C   0  0  0  0  0  0
   32.5212  -11.2641    2.5202 C   0  0  0  0  0  0
   32.4134  -12.5431    3.0592 C   0  0  0  0  0  0
   33.7578   -9.1003    2.1769 C   0  0  0  0  0  0
   34.6673   -8.1602    2.6703 C   0  0  0  0  0  0
   34.7538   -6.8749    2.1154 C   0  0  0  0  0  0
   33.8774   -6.5743    1.0395 C   0  0  0  0  0  0
   33.6821   -5.3963    0.2453 C   0  0  0  0  0  0
   34.3726   -4.1920    0.3732 N   0  0  0  0  0  0
   34.1592   -3.0941   -0.3991 C   0  0  0  0  0  0
   34.7956   -2.0544   -0.2452 O   0  0  0  0  0  0
   33.1223   -3.2645   -1.4083 C   0  0  0  0  0  0
   32.4091   -4.4031   -1.5926 C   0  0  0  0  0  0
   31.5143   -4.4451   -2.5153 O   0  5  0  0  0  0
   32.6919   -5.5472   -0.7227 C   0  0  0  0  0  0
   31.9467   -7.1250   -0.7176 S   0  0  0  0  0  0
   32.9835   -7.6081    0.6161 C   0  0  0  0  0  0
   32.9104   -8.8256    1.1506 N   0  0  0  0  0  0
   35.7669   -5.8809    2.6887 C   0  0  0  0  0  0
   36.7264   -5.6513    1.7926 F   0  0  0  0  0  0
   35.1549   -4.7331    2.9787 F   0  0  0  0  0  0
   36.3532   -6.3193    3.8048 F   0  0  0  0  0  0
   33.6818  -18.1247    5.4527 H   0  0  0  0  0  0
   34.8353  -17.3886    4.3460 H   0  0  0  0  0  0
   33.1239  -16.9739    4.2432 H   0  0  0  0  0  0
   33.2510  -15.9219    6.5286 H   0  0  0  0  0  0
   34.9449  -16.3346    6.6301 H   0  0  0  0  0  0
   34.7291  -13.9692    6.0089 H   0  0  0  0  0  0
   35.4140  -14.8568    4.6404 H   0  0  0  0  0  0
   35.3655  -12.6611    4.7249 H   0  0  0  0  0  0
   35.5570  -10.4168    3.7786 H   0  0  0  0  0  0
   31.7097  -10.8909    1.9129 H   0  0  0  0  0  0
   31.5243  -13.1158    2.8437 H   0  0  0  0  0  0
   35.3049   -8.4331    3.4982 H   0  0  0  0  0  0
   35.0887   -4.0843    1.0768 H   0  0  0  0  0  0
   32.9252   -2.4102   -2.0416 H   0  0  0  0  0  0
  1  2  1  0  0  0
  1 30  1  0  0  0
  1 31  1  0  0  0
  1 32  1  0  0  0
  2  3  1  0  0  0
  2 33  1  0  0  0
  2 34  1  0  0  0
  3  4  1  0  0  0
  3 35  1  0  0  0
  3 36  1  0  0  0
  4  5  1  0  0  0
  5  6  2  0  0  0
  5 10  1  0  0  0
  6  7  1  0  0  0
  6 37  1  0  0  0
  7  8  2  0  0  0
  7 38  1  0  0  0
  8  9  1  0  0  0
  8 11  1  0  0  0
  9 10  2  0  0  0
  9 39  1  0  0  0
 10 40  1  0  0  0
 11 12  2  0  0  0
 11 25  1  0  0  0
 12 13  1  0  0  0
 12 41  1  0  0  0
 13 14  2  0  0  0
 13 26  1  0  0  0
 14 15  1  0  0  0
 14 24  1  0  0  0
 15 16  1  0  0  0
 15 22  2  0  0  0
 16 17  1  0  0  0
 16 42  1  0  0  0
 17 18  2  0  0  0
 17 19  1  0  0  0
 19 20  2  0  0  0
 19 43  1  0  0  0
 20 21  1  0  0  0
 20 22  1  0  0  0
 22 23  1  0  0  0
 23 24  1  0  0  0
 24 25  2  0  0  0
 26 27  1  0  0  0
 26 28  1  0  0  0
 26 29  1  0  0  0
M  CHG  1  21  -1
M  END
> <Gold.Chemscore.Fitness>
42.2466

> <Gold.Version>
5.8.1

> <Gold.Chemscore.DG>
-34.6009

> <Gold.Chemscore.Hbond.Weighted>
-2.6078

> <Gold.Chemscore.Lipo.Weighted>
-29.8863

> <Gold.Chemscore.Internal_Hbond.Weighted>
0

> <Gold.Chemscore.DEClash.Weighted>
1.2056

> <Gold.Chemscore.DEInternal.Weighted>
0.2215

> <Gold.Chemscore.Internal.Correction.Weighted>
1.5555

> <Gold.Chemscore.Constraint>
-9.0729

> <Gold.ChemScore.Ligand.Score.Contributions>
AtomID ChemScore.Hbond ChemScore.Metal ChemScore.Lipo ChemScore.DEClash ChemScore.total
1         0.00     0.00    30.01     0.10     3.41
2         0.00     0.00    27.55     0.00     3.22
3         0.00     0.00    24.40     0.01     2.84
4         0.00     0.00     0.00     0.11    -0.11
5         0.00     0.00    23.73     0.00     2.78
6         0.00     0.00    20.93     0.00     2.45
7         0.00     0.00    17.54     0.00     2.05
8         0.00     0.00    17.26     0.00     2.02
9         0.00     0.00    19.35     0.21     2.05
10        0.00     0.00    23.11     0.00     2.70
11        0.00     0.00    12.71     0.00     1.49
12        0.00     0.00     9.92     0.00     1.16
13        0.00     0.00     5.62     0.00     0.66
14        0.00     0.00     4.24     0.00     0.50
15        0.00     0.00     1.48     0.00     0.17
19        0.00     0.00     0.23     0.00     0.03
20        0.00     0.00     0.77     0.00     0.09
22        0.00     0.00     1.88     0.00     0.22
23        0.00     0.00     4.53     0.06     0.47
24        0.00     0.00     6.61     0.00     0.77
25        0.78     0.00     0.00     0.00     2.61
26        0.00     0.00     3.76     0.00     0.44
28        0.00     0.00     0.00     0.70    -0.70

> <gold pose ID>
ligprep_Molport_list.sdf:13|Molport_ligands|sdf|13|dock9

$$$$
ligprep_Molport_list.sdf:13|Molport_ligands|sdf|13|dock8
                    3D
 Schrodinger Suite 2020-2.
 43 46  0  0  1  0            999 V2000
   33.3027  -17.0786    5.0663 C   0  0  0  0  0  0
   34.3527  -16.3076    5.8776 C   0  0  0  0  0  0
   34.6677  -14.9241    5.2901 C   0  0  0  0  0  0
   33.5295  -14.4663    4.5652 O   0  0  0  0  0  0
   33.5467  -13.2049    4.0016 C   0  0  0  0  0  0
   34.7202  -12.4693    4.1559 C   0  0  0  0  0  0
   34.8288  -11.1888    3.6212 C   0  0  0  0  0  0
   33.7639  -10.6120    2.9154 C   0  0  0  0  0  0
   32.5863  -11.3557    2.7650 C   0  0  0  0  0  0
   32.4743  -12.6361    3.2996 C   0  0  0  0  0  0
   33.8756   -9.2391    2.3326 C   0  0  0  0  0  0
   34.9329   -8.3862    2.6626 C   0  0  0  0  0  0
   35.0225   -7.0977    2.1156 C   0  0  0  0  0  0
   33.9938   -6.7017    1.2207 C   0  0  0  0  0  0
   33.7552   -5.4919    0.4885 C   0  0  0  0  0  0
   34.5535   -4.3491    0.5020 N   0  0  0  0  0  0
   34.2945   -3.2183   -0.2063 C   0  0  0  0  0  0
   35.0311   -2.2360   -0.1592 O   0  0  0  0  0  0
   33.0820   -3.2808   -1.0116 C   0  0  0  0  0  0
   32.2567   -4.3550   -1.0757 C   0  0  0  0  0  0
   31.2097   -4.3030   -1.8205 O   0  5  0  0  0  0
   32.5975   -5.5398   -0.2846 C   0  0  0  0  0  0
   31.7391   -7.0540   -0.1615 S   0  0  0  0  0  0
   32.9567   -7.6511    0.9555 C   0  0  0  0  0  0
   32.8821   -8.8725    1.4809 N   0  0  0  0  0  0
   36.2003   -6.2012    2.5059 C   0  0  0  0  0  0
   36.8950   -6.7756    3.4876 F   0  0  0  0  0  0
   36.9967   -6.0224    1.4524 F   0  0  0  0  0  0
   35.8186   -4.9956    2.9331 F   0  0  0  0  0  0
   33.1062  -18.0543    5.5115 H   0  0  0  0  0  0
   33.6379  -17.2450    4.0420 H   0  0  0  0  0  0
   32.3569  -16.5372    5.0265 H   0  0  0  0  0  0
   34.0012  -16.1956    6.9041 H   0  0  0  0  0  0
   35.2684  -16.8982    5.9292 H   0  0  0  0  0  0
   34.9060  -14.2264    6.0952 H   0  0  0  0  0  0
   35.5333  -14.9905    4.6282 H   0  0  0  0  0  0
   35.5557  -12.8945    4.6929 H   0  0  0  0  0  0
   35.7545  -10.6476    3.7543 H   0  0  0  0  0  0
   31.7399  -10.9422    2.2364 H   0  0  0  0  0  0
   31.5466  -13.1697    3.1593 H   0  0  0  0  0  0
   35.6851   -8.7295    3.3575 H   0  0  0  0  0  0
   35.3913   -4.3161    1.0645 H   0  0  0  0  0  0
   32.8443   -2.3977   -1.5889 H   0  0  0  0  0  0
  1  2  1  0  0  0
  1 30  1  0  0  0
  1 31  1  0  0  0
  1 32  1  0  0  0
  2  3  1  0  0  0
  2 33  1  0  0  0
  2 34  1  0  0  0
  3  4  1  0  0  0
  3 35  1  0  0  0
  3 36  1  0  0  0
  4  5  1  0  0  0
  5  6  2  0  0  0
  5 10  1  0  0  0
  6  7  1  0  0  0
  6 37  1  0  0  0
  7  8  2  0  0  0
  7 38  1  0  0  0
  8  9  1  0  0  0
  8 11  1  0  0  0
  9 10  2  0  0  0
  9 39  1  0  0  0
 10 40  1  0  0  0
 11 12  2  0  0  0
 11 25  1  0  0  0
 12 13  1  0  0  0
 12 41  1  0  0  0
 13 14  2  0  0  0
 13 26  1  0  0  0
 14 15  1  0  0  0
 14 24  1  0  0  0
 15 16  1  0  0  0
 15 22  2  0  0  0
 16 17  1  0  0  0
 16 42  1  0  0  0
 17 18  2  0  0  0
 17 19  1  0  0  0
 19 20  2  0  0  0
 19 43  1  0  0  0
 20 21  1  0  0  0
 20 22  1  0  0  0
 22 23  1  0  0  0
 23 24  1  0  0  0
 24 25  2  0  0  0
 26 27  1  0  0  0
 26 28  1  0  0  0
 26 29  1  0  0  0
M  CHG  1  21  -1
M  END
> <Gold.Chemscore.Fitness>
42.2123

> <Gold.Version>
5.8.1

> <Gold.Chemscore.DG>
-35.189

> <Gold.Chemscore.Hbond.Weighted>
-2.6531

> <Gold.Chemscore.Lipo.Weighted>
-30.4291

> <Gold.Chemscore.Internal_Hbond.Weighted>
0

> <Gold.Chemscore.DEClash.Weighted>
1.8575

> <Gold.Chemscore.DEInternal.Weighted>
0.2899

> <Gold.Chemscore.Internal.Correction.Weighted>
1.5555

> <Gold.Chemscore.Constraint>
-9.1707

> <Gold.ChemScore.Ligand.Score.Contributions>
AtomID ChemScore.Hbond ChemScore.Metal ChemScore.Lipo ChemScore.DEClash ChemScore.total
1         0.00     0.00    31.09     0.12     3.52
2         0.00     0.00    27.77     0.00     3.25
3         0.00     0.00    24.19     0.00     2.83
4         0.00     0.00     0.00     0.34    -0.34
5         0.00     0.00    23.89     0.00     2.79
6         0.00     0.00    20.74     0.00     2.43
7         0.00     0.00    17.65     0.01     2.06
8         0.00     0.00    17.65     0.00     2.07
9         0.00     0.00    20.00     0.00     2.34
10        0.00     0.00    23.82     0.00     2.79
11        0.00     0.00    13.24     0.00     1.55
12        0.00     0.00     9.91     0.00     1.16
13        0.00     0.00     5.60     0.00     0.65
14        0.00     0.00     4.59     0.00     0.54
15        0.00     0.00     1.78     0.00     0.21
19        0.00     0.00     0.27     0.00     0.03
20        0.00     0.00     0.94     0.00     0.11
22        0.00     0.00     2.12     0.00     0.25
23        0.00     0.00     4.63     1.38    -0.84
24        0.00     0.00     7.15     0.00     0.84
25        0.79     0.00     0.00     0.00     2.65
26        0.00     0.00     3.23     0.00     0.38
29        0.00     0.00     0.00     0.02    -0.02

> <gold pose ID>
ligprep_Molport_list.sdf:13|Molport_ligands|sdf|13|dock8

$$$$
ligprep_Molport_list.sdf:14|Molport_ligands|sdf|14|dock9
                    3D
 Schrodinger Suite 2020-2.
 30 33  0  0  1  0            999 V2000
   32.5150   -8.1851    0.9767 O   0  5  0  0  0  0
   33.5828   -8.3839    1.6653 C   0  0  0  0  0  0
   34.5274   -7.4124    1.7253 C   0  0  0  0  0  0
   35.7756   -7.5189    2.4696 C   0  0  0  0  0  0
   36.6217   -6.6291    2.5119 O   0  0  0  0  0  0
   35.9364   -8.6986    3.1255 N   0  0  0  0  0  0
   35.0121   -9.7417    3.1116 C   0  0  0  0  0  0
   33.8233   -9.6307    2.3948 C   0  0  0  0  0  0
   32.8097  -11.0485    2.5026 S   0  0  0  0  0  0
   34.0037  -11.8214    3.5346 C   0  0  0  0  0  0
   33.8260  -13.0516    4.0133 N   0  0  0  0  0  0
   34.8155  -13.5525    4.7983 C   0  0  0  0  0  0
   35.9735  -12.8335    5.1063 C   0  0  0  0  0  0
   36.1652  -11.5361    4.6110 C   0  0  0  0  0  0
   37.4398  -10.7759    4.9711 C   0  0  0  0  0  0
   38.0913  -11.3948    5.9554 F   0  0  0  0  0  0
   38.2749  -10.6107    3.9432 F   0  0  0  0  0  0
   35.1459  -10.9980    3.7859 C   0  0  0  0  0  0
   34.6056  -14.9407    5.3336 C   0  0  0  0  0  0
   35.1530  -15.5338    6.4750 C   0  0  0  0  0  0
   34.7405  -16.8536    6.6827 C   0  0  0  0  0  0
   33.8691  -17.3000    5.7048 C   0  0  0  0  0  0
   33.5550  -16.0804    4.5168 S   0  0  0  0  0  0
   34.3648   -6.4857    1.1919 H   0  0  0  0  0  0
   36.7953   -8.7806    3.6498 H   0  0  0  0  0  0
   36.7259  -13.2816    5.7376 H   0  0  0  0  0  0
   37.1893   -9.7736    5.3197 H   0  0  0  0  0  0
   35.8333  -15.0293    7.1447 H   0  0  0  0  0  0
   35.0662  -17.4589    7.5156 H   0  0  0  0  0  0
   33.4040  -18.2714    5.6271 H   0  0  0  0  0  0
  1  2  1  0  0  0
  2  3  2  0  0  0
  2  8  1  0  0  0
  3  4  1  0  0  0
  3 24  1  0  0  0
  4  5  2  0  0  0
  4  6  1  0  0  0
  6  7  1  0  0  0
  6 25  1  0  0  0
  7  8  2  0  0  0
  7 18  1  0  0  0
  8  9  1  0  0  0
  9 10  1  0  0  0
 10 11  2  0  0  0
 10 18  1  0  0  0
 11 12  1  0  0  0
 12 13  2  0  0  0
 12 19  1  0  0  0
 13 14  1  0  0  0
 13 26  1  0  0  0
 14 15  1  0  0  0
 14 18  2  0  0  0
 15 16  1  0  0  0
 15 17  1  0  0  0
 15 27  1  0  0  0
 19 20  2  0  0  0
 19 23  1  0  0  0
 20 21  1  0  0  0
 20 28  1  0  0  0
 21 22  2  0  0  0
 21 29  1  0  0  0
 22 23  1  0  0  0
 22 30  1  0  0  0
M  CHG  1   1  -1
M  END
> <Gold.Chemscore.Fitness>
47.1169

> <Gold.Version>
5.8.1

> <Gold.Chemscore.DG>
-44.3634

> <Gold.Chemscore.Hbond.Weighted>
-3.3008

> <Gold.Chemscore.Lipo.Weighted>
-35.5827

> <Gold.Chemscore.Internal_Hbond.Weighted>
0

> <Gold.Chemscore.DEClash.Weighted>
4.3306

> <Gold.Chemscore.DEInternal.Weighted>
0.4778

> <Gold.Chemscore.Internal.Correction.Weighted>
0.0043

> <Gold.Chemscore.Constraint>
-7.5619

> <Gold.ChemScore.Ligand.Score.Contributions>
AtomID ChemScore.Hbond ChemScore.Metal ChemScore.Lipo ChemScore.DEClash ChemScore.total
1         0.99     0.00     0.00     0.22     3.08
2         0.00     0.00    10.05     0.00     1.18
3         0.00     0.00     6.26     0.00     0.73
7         0.00     0.00    13.59     0.00     1.59
8         0.00     0.00    14.40     0.00     1.68
9         0.00     0.00    18.68     0.38     1.81
10        0.00     0.00    20.64     0.00     2.41
12        0.00     0.00    22.32     0.00     2.61
13        0.00     0.00    19.08     0.00     2.23
14        0.00     0.00    16.13     0.00     1.89
15        0.00     0.00    11.47     0.00     1.34
18        0.00     0.00    16.65     0.00     1.95
19        0.00     0.00    24.38     0.06     2.79
20        0.00     0.00    24.07     0.31     2.50
21        0.00     0.00    26.70     1.53     1.60
22        0.00     0.00    30.49     1.74     1.83
23        0.00     0.00    28.42     0.09     3.24

> <gold pose ID>
ligprep_Molport_list.sdf:14|Molport_ligands|sdf|14|dock9

$$$$
ligprep_Molport_list.sdf:14|Molport_ligands|sdf|14|dock3
                    3D
 Schrodinger Suite 2020-2.
 30 33  0  0  1  0            999 V2000
   32.5462   -8.5070    1.3284 O   0  5  0  0  0  0
   33.6162   -8.8021    1.9779 C   0  0  0  0  0  0
   34.6270   -7.9000    2.0419 C   0  0  0  0  0  0
   35.8848   -8.1174    2.7447 C   0  0  0  0  0  0
   36.7913   -7.2893    2.7911 O   0  0  0  0  0  0
   35.9817   -9.3275    3.3561 N   0  0  0  0  0  0
   34.9874  -10.3041    3.3352 C   0  0  0  0  0  0
   33.7899  -10.0873    2.6583 C   0  0  0  0  0  0
   32.6841  -11.4357    2.7493 S   0  0  0  0  0  0
   33.8497  -12.3238    3.7191 C   0  0  0  0  0  0
   33.6006  -13.5550    4.1619 N   0  0  0  0  0  0
   34.5743  -14.1494    4.9000 C   0  0  0  0  0  0
   35.7873  -13.5223    5.1970 C   0  0  0  0  0  0
   36.0545  -12.2244    4.7394 C   0  0  0  0  0  0
   37.3880  -11.5659    5.0863 C   0  0  0  0  0  0
   37.5743  -11.5536    6.4060 F   0  0  0  0  0  0
   38.4410  -12.1505    4.5112 F   0  0  0  0  0  0
   35.0525  -11.5895    3.9633 C   0  0  0  0  0  0
   34.2837  -15.5380    5.3951 C   0  0  0  0  0  0
   33.4243  -16.5003    4.8570 C   0  0  0  0  0  0
   33.3934  -17.6996    5.5754 C   0  0  0  0  0  0
   34.2276  -17.6814    6.6793 C   0  0  0  0  0  0
   35.0586  -16.1706    6.8337 S   0  0  0  0  0  0
   34.5143   -6.9463    1.5445 H   0  0  0  0  0  0
   36.8469   -9.4862    3.8516 H   0  0  0  0  0  0
   36.5239  -14.0425    5.7904 H   0  0  0  0  0  0
   37.3927  -10.5313    4.7423 H   0  0  0  0  0  0
   32.8330  -16.3449    3.9671 H   0  0  0  0  0  0
   32.7849  -18.5478    5.2989 H   0  0  0  0  0  0
   34.3909  -18.4710    7.3975 H   0  0  0  0  0  0
  1  2  1  0  0  0
  2  3  2  0  0  0
  2  8  1  0  0  0
  3  4  1  0  0  0
  3 24  1  0  0  0
  4  5  2  0  0  0
  4  6  1  0  0  0
  6  7  1  0  0  0
  6 25  1  0  0  0
  7  8  2  0  0  0
  7 18  1  0  0  0
  8  9  1  0  0  0
  9 10  1  0  0  0
 10 11  2  0  0  0
 10 18  1  0  0  0
 11 12  1  0  0  0
 12 13  2  0  0  0
 12 19  1  0  0  0
 13 14  1  0  0  0
 13 26  1  0  0  0
 14 15  1  0  0  0
 14 18  2  0  0  0
 15 16  1  0  0  0
 15 17  1  0  0  0
 15 27  1  0  0  0
 19 20  2  0  0  0
 19 23  1  0  0  0
 20 21  1  0  0  0
 20 28  1  0  0  0
 21 22  2  0  0  0
 21 29  1  0  0  0
 22 23  1  0  0  0
 22 30  1  0  0  0
M  CHG  1   1  -1
M  END
> <Gold.Chemscore.Fitness>
46.9537

> <Gold.Version>
5.8.1

> <Gold.Chemscore.DG>
-47.3604

> <Gold.Chemscore.Hbond.Weighted>
-3.3385

> <Gold.Chemscore.Lipo.Weighted>
-38.542

> <Gold.Chemscore.Internal_Hbond.Weighted>
0

> <Gold.Chemscore.DEClash.Weighted>
8.1902

> <Gold.Chemscore.DEInternal.Weighted>
0.3444

> <Gold.Chemscore.Internal.Correction.Weighted>
0.0043

> <Gold.Chemscore.Constraint>
-8.1278

> <Gold.ChemScore.Ligand.Score.Contributions>
AtomID ChemScore.Hbond ChemScore.Metal ChemScore.Lipo ChemScore.DEClash ChemScore.total
1         1.00     0.00     0.00     0.03     3.31
2         0.00     0.00    11.75     0.00     1.37
3         0.00     0.00     8.10     0.00     0.95
7         0.00     0.00    14.98     0.00     1.75
8         0.00     0.00    16.04     0.00     1.88
9         0.00     0.00    20.01     0.00     2.34
10        0.00     0.00    22.05     0.00     2.58
12        0.00     0.00    23.46     0.00     2.74
13        0.00     0.00    20.18     0.00     2.36
14        0.00     0.00    17.74     0.00     2.08
15        0.00     0.00    13.79     0.00     1.61
17        0.00     0.00     0.00     0.00    -0.00
18        0.00     0.00    18.37     0.00     2.15
19        0.00     0.00    26.67     0.00     3.12
20        0.00     0.00    29.78     0.36     3.13
21        0.00     0.00    31.35     2.13     1.54
22        0.00     0.00    28.39     4.57    -1.25
23        0.00     0.00    25.03     1.10     1.83

> <gold pose ID>
ligprep_Molport_list.sdf:14|Molport_ligands|sdf|14|dock3

$$$$
ligprep_Molport_list.sdf:14|Molport_ligands|sdf|14|dock10
                    3D
 Schrodinger Suite 2020-2.
 30 33  0  0  1  0            999 V2000
   32.5054   -8.1366    0.9196 O   0  5  0  0  0  0
   33.5883   -8.3574    1.5773 C   0  0  0  0  0  0
   34.5545   -7.4061    1.6086 C   0  0  0  0  0  0
   35.8212   -7.5385    2.3167 C   0  0  0  0  0  0
   36.6868   -6.6666    2.3332 O   0  0  0  0  0  0
   35.9761   -8.7208    2.9692 N   0  0  0  0  0  0
   35.0300   -9.7442    2.9833 C   0  0  0  0  0  0
   33.8235   -9.6086    2.3011 C   0  0  0  0  0  0
   32.7838  -11.0046    2.4401 S   0  0  0  0  0  0
   33.9906  -11.8018    3.4381 C   0  0  0  0  0  0
   33.8010  -13.0276    3.9233 N   0  0  0  0  0  0
   34.8020  -13.5488    4.6800 C   0  0  0  0  0  0
   35.9834  -12.8542    4.9534 C   0  0  0  0  0  0
   36.1880  -11.5614    4.4510 C   0  0  0  0  0  0
   37.4881  -10.8281    4.7732 C   0  0  0  0  0  0
   37.7364  -10.8689    6.0820 F   0  0  0  0  0  0
   38.5500  -11.3067    4.1215 F   0  0  0  0  0  0
   35.1567  -11.0025    3.6551 C   0  0  0  0  0  0
   34.5785  -14.9319    5.2229 C   0  0  0  0  0  0
   35.2766  -15.6028    6.2313 C   0  0  0  0  0  0
   34.7994  -16.8912    6.4918 C   0  0  0  0  0  0
   33.7265  -17.2349    5.6883 C   0  0  0  0  0  0
   33.3014  -15.9572    4.6003 S   0  0  0  0  0  0
   34.3962   -6.4766    1.0790 H   0  0  0  0  0  0
   36.8479   -8.8206    3.4685 H   0  0  0  0  0  0
   36.7441  -13.3177    5.5632 H   0  0  0  0  0  0
   37.4053   -9.7798    4.4850 H   0  0  0  0  0  0
   36.1099  -15.1760    6.7690 H   0  0  0  0  0  0
   35.2220  -17.5466    7.2387 H   0  0  0  0  0  0
   33.1745  -18.1630    5.6840 H   0  0  0  0  0  0
  1  2  1  0  0  0
  2  3  2  0  0  0
  2  8  1  0  0  0
  3  4  1  0  0  0
  3 24  1  0  0  0
  4  5  2  0  0  0
  4  6  1  0  0  0
  6  7  1  0  0  0
  6 25  1  0  0  0
  7  8  2  0  0  0
  7 18  1  0  0  0
  8  9  1  0  0  0
  9 10  1  0  0  0
 10 11  2  0  0  0
 10 18  1  0  0  0
 11 12  1  0  0  0
 12 13  2  0  0  0
 12 19  1  0  0  0
 13 14  1  0  0  0
 13 26  1  0  0  0
 14 15  1  0  0  0
 14 18  2  0  0  0
 15 16  1  0  0  0
 15 17  1  0  0  0
 15 27  1  0  0  0
 19 20  2  0  0  0
 19 23  1  0  0  0
 20 21  1  0  0  0
 20 28  1  0  0  0
 21 22  2  0  0  0
 21 29  1  0  0  0
 22 23  1  0  0  0
 22 30  1  0  0  0
M  CHG  1   1  -1
M  END
> <Gold.Chemscore.Fitness>
46.7239

> <Gold.Version>
5.8.1

> <Gold.Chemscore.DG>
-44.0791

> <Gold.Chemscore.Hbond.Weighted>
-3.2783

> <Gold.Chemscore.Lipo.Weighted>
-35.3208

> <Gold.Chemscore.Internal_Hbond.Weighted>
0

> <Gold.Chemscore.DEClash.Weighted>
4.5478

> <Gold.Chemscore.DEInternal.Weighted>
0.3294

> <Gold.Chemscore.Internal.Correction.Weighted>
0.0043

> <Gold.Chemscore.Constraint>
-7.5221

> <Gold.ChemScore.Ligand.Score.Contributions>
AtomID ChemScore.Hbond ChemScore.Metal ChemScore.Lipo ChemScore.DEClash ChemScore.total
1         0.98     0.00     0.00     0.22     3.06
2         0.00     0.00     9.79     0.00     1.15
3         0.00     0.00     6.06     0.00     0.71
7         0.00     0.00    13.33     0.00     1.56
8         0.00     0.00    14.20     0.00     1.66
9         0.00     0.00    18.47     1.43     0.73
10        0.00     0.00    20.37     0.29     2.09
12        0.00     0.00    22.18     0.00     2.59
13        0.00     0.00    18.85     0.00     2.21
14        0.00     0.00    16.04     0.00     1.88
15        0.00     0.00    11.43     0.00     1.34
18        0.00     0.00    16.46     0.03     1.90
19        0.00     0.00    24.44     0.00     2.86
20        0.00     0.00    24.10     0.00     2.82
21        0.00     0.00    26.65     0.95     2.17
22        0.00     0.00    30.61     1.44     2.14
23        0.00     0.00    28.47     0.19     3.14

> <gold pose ID>
ligprep_Molport_list.sdf:14|Molport_ligands|sdf|14|dock10

$$$$
ligprep_Molport_list.sdf:15|Molport_ligands|sdf|15|dock7
                    3D
 Schrodinger Suite 2020-2.
 30 33  0  0  1  0            999 V2000
   34.1619  -16.1275    5.6719 C   0  0  0  0  0  0
   34.5124  -14.7103    5.2539 C   0  0  0  0  0  0
   35.6490  -14.0785    5.7387 C   0  0  0  0  0  0
   35.9880  -12.7640    5.3606 C   0  0  0  0  0  0
   37.2808  -12.2727    6.0175 C   0  0  0  0  0  0
   37.8262  -10.9720    6.0246 C   0  0  0  0  0  0
   39.0317  -10.8290    6.7150 C   0  0  0  0  0  0
   39.4644  -12.0126    7.2678 C   0  0  0  0  0  0
   38.3665  -13.2987    6.9245 S   0  0  0  0  0  0
   35.0789  -12.1192    4.4389 C   0  0  0  0  0  0
   34.9979  -10.8264    3.7833 C   0  0  0  0  0  0
   35.8858   -9.7624    3.8972 N   0  0  0  0  0  0
   35.7811   -8.5628    3.2686 C   0  0  0  0  0  0
   36.6113   -7.6697    3.4224 O   0  0  0  0  0  0
   34.6129   -8.4424    2.4130 C   0  0  0  0  0  0
   33.6933   -9.4204    2.2375 C   0  0  0  0  0  0
   32.6937   -9.2107    1.4558 O   0  5  0  0  0  0
   33.8808  -10.6860    2.9534 C   0  0  0  0  0  0
   32.8588  -12.0845    2.9029 S   0  0  0  0  0  0
   33.9358  -12.8974    4.0176 C   0  0  0  0  0  0
   33.6478  -14.1381    4.3964 N   0  0  0  0  0  0
   34.8950  -16.5409    6.3656 H   0  0  0  0  0  0
   34.1202  -16.7827    4.8009 H   0  0  0  0  0  0
   33.1880  -16.1506    6.1625 H   0  0  0  0  0  0
   36.2545  -14.6522    6.4195 H   0  0  0  0  0  0
   37.3792  -10.1167    5.5443 H   0  0  0  0  0  0
   39.5650   -9.8941    6.8052 H   0  0  0  0  0  0
   40.3572  -12.1895    7.8490 H   0  0  0  0  0  0
   36.6967   -9.8491    4.4926 H   0  0  0  0  0  0
   34.4922   -7.5015    1.8936 H   0  0  0  0  0  0
  1  2  1  0  0  0
  1 22  1  0  0  0
  1 23  1  0  0  0
  1 24  1  0  0  0
  2  3  2  0  0  0
  2 21  1  0  0  0
  3  4  1  0  0  0
  3 25  1  0  0  0
  4  5  1  0  0  0
  4 10  2  0  0  0
  5  6  2  0  0  0
  5  9  1  0  0  0
  6  7  1  0  0  0
  6 26  1  0  0  0
  7  8  2  0  0  0
  7 27  1  0  0  0
  8  9  1  0  0  0
  8 28  1  0  0  0
 10 11  1  0  0  0
 10 20  1  0  0  0
 11 12  1  0  0  0
 11 18  2  0  0  0
 12 13  1  0  0  0
 12 29  1  0  0  0
 13 14  2  0  0  0
 13 15  1  0  0  0
 15 16  2  0  0  0
 15 30  1  0  0  0
 16 17  1  0  0  0
 16 18  1  0  0  0
 18 19  1  0  0  0
 19 20  1  0  0  0
 20 21  2  0  0  0
M  CHG  1  17  -1
M  END
> <Gold.Chemscore.Fitness>
47.0964

> <Gold.Version>
5.8.1

> <Gold.Chemscore.DG>
-41.164

> <Gold.Chemscore.Hbond.Weighted>
-3.3385

> <Gold.Chemscore.Lipo.Weighted>
-32.3454

> <Gold.Chemscore.Internal_Hbond.Weighted>
0

> <Gold.Chemscore.DEClash.Weighted>
2.2951

> <Gold.Chemscore.DEInternal.Weighted>
0.0409

> <Gold.Chemscore.Internal.Correction.Weighted>
0

> <Gold.Chemscore.Constraint>
-8.2684

> <Gold.ChemScore.Ligand.Score.Contributions>
AtomID ChemScore.Hbond ChemScore.Metal ChemScore.Lipo ChemScore.DEClash ChemScore.total
1         0.00     0.00    28.05     0.00     3.28
2         0.00     0.00    24.32     0.01     2.84
3         0.00     0.00    21.30     0.00     2.49
4         0.00     0.00    19.08     0.00     2.23
5         0.00     0.00    15.60     0.00     1.82
6         0.00     0.00    11.44     0.00     1.34
7         0.00     0.00     9.13     0.00     1.07
8         0.00     0.00    10.51     0.00     1.23
9         0.00     0.00    14.38     2.28    -0.60
10        0.00     0.00    19.71     0.00     2.31
11        0.00     0.00    16.63     0.00     1.95
15        0.00     0.00    10.30     0.00     1.21
16        0.00     0.00    13.78     0.00     1.61
17        1.00     0.00     0.00     0.00     3.34
18        0.00     0.00    17.67     0.00     2.07
19        0.00     0.00    21.53     0.00     2.52
20        0.00     0.00    22.81     0.00     2.67
21        0.00     0.00     0.00     0.00    -0.00

> <gold pose ID>
ligprep_Molport_list.sdf:15|Molport_ligands|sdf|15|dock7

$$$$
ligprep_Molport_list.sdf:15|Molport_ligands|sdf|15|dock8
                    3D
 Schrodinger Suite 2020-2.
 30 33  0  0  1  0            999 V2000
   34.0701  -16.1440    5.4374 C   0  0  0  0  0  0
   34.4179  -14.7190    5.0446 C   0  0  0  0  0  0
   35.5619  -14.0993    5.5278 C   0  0  0  0  0  0
   35.8986  -12.7779    5.1729 C   0  0  0  0  0  0
   37.2007  -12.3026    5.8231 C   0  0  0  0  0  0
   37.8418  -11.0523    5.6998 C   0  0  0  0  0  0
   39.0295  -10.9117    6.4207 C   0  0  0  0  0  0
   39.3522  -12.0468    7.1287 C   0  0  0  0  0  0
   38.1735  -13.2845    6.8924 S   0  0  0  0  0  0
   34.9788  -12.1124    4.2767 C   0  0  0  0  0  0
   34.8919  -10.8060    3.6494 C   0  0  0  0  0  0
   35.7833   -9.7461    3.7741 N   0  0  0  0  0  0
   35.6728   -8.5333    3.1721 C   0  0  0  0  0  0
   36.5066   -7.6451    3.3337 O   0  0  0  0  0  0
   34.4939   -8.3932    2.3344 C   0  0  0  0  0  0
   33.5702   -9.3658    2.1504 C   0  0  0  0  0  0
   32.5610   -9.1380    1.3863 O   0  5  0  0  0  0
   33.7644  -10.6464    2.8371 C   0  0  0  0  0  0
   32.7392  -12.0417    2.7707 S   0  0  0  0  0  0
   33.8290  -12.8796    3.8541 C   0  0  0  0  0  0
   33.5434  -14.1275    4.2106 N   0  0  0  0  0  0
   34.8113  -16.5731    6.1128 H   0  0  0  0  0  0
   34.0158  -16.7808    4.5535 H   0  0  0  0  0  0
   33.1026  -16.1758    5.9400 H   0  0  0  0  0  0
   36.1750  -14.6882    6.1886 H   0  0  0  0  0  0
   37.4776  -10.2324    5.1021 H   0  0  0  0  0  0
   39.6281  -10.0126    6.4227 H   0  0  0  0  0  0
   40.2082  -12.2141    7.7655 H   0  0  0  0  0  0
   36.6017   -9.8466    4.3569 H   0  0  0  0  0  0
   34.3683   -7.4414    1.8364 H   0  0  0  0  0  0
  1  2  1  0  0  0
  1 22  1  0  0  0
  1 23  1  0  0  0
  1 24  1  0  0  0
  2  3  2  0  0  0
  2 21  1  0  0  0
  3  4  1  0  0  0
  3 25  1  0  0  0
  4  5  1  0  0  0
  4 10  2  0  0  0
  5  6  2  0  0  0
  5  9  1  0  0  0
  6  7  1  0  0  0
  6 26  1  0  0  0
  7  8  2  0  0  0
  7 27  1  0  0  0
  8  9  1  0  0  0
  8 28  1  0  0  0
 10 11  1  0  0  0
 10 20  1  0  0  0
 11 12  1  0  0  0
 11 18  2  0  0  0
 12 13  1  0  0  0
 12 29  1  0  0  0
 13 14  2  0  0  0
 13 15  1  0  0  0
 15 16  2  0  0  0
 15 30  1  0  0  0
 16 17  1  0  0  0
 16 18  1  0  0  0
 18 19  1  0  0  0
 19 20  1  0  0  0
 20 21  2  0  0  0
M  CHG  1  17  -1
M  END
> <Gold.Chemscore.Fitness>
46.9246

> <Gold.Version>
5.8.1

> <Gold.Chemscore.DG>
-41.2998

> <Gold.Chemscore.Hbond.Weighted>
-3.2509

> <Gold.Chemscore.Lipo.Weighted>
-32.569

> <Gold.Chemscore.Internal_Hbond.Weighted>
0

> <Gold.Chemscore.DEClash.Weighted>
2.7904

> <Gold.Chemscore.DEInternal.Weighted>
0

> <Gold.Chemscore.Internal.Correction.Weighted>
0

> <Gold.Chemscore.Constraint>
-8.4151

> <Gold.ChemScore.Ligand.Score.Contributions>
AtomID ChemScore.Hbond ChemScore.Metal ChemScore.Lipo ChemScore.DEClash ChemScore.total
1         0.00     0.00    28.32     0.00     3.31
2         0.00     0.00    24.62     0.00     2.88
3         0.00     0.00    21.49     0.00     2.51
4         0.00     0.00    19.21     0.00     2.25
5         0.00     0.00    15.72     0.00     1.84
6         0.00     0.00    11.68     0.00     1.37
7         0.00     0.00     9.06     0.00     1.06
8         0.00     0.00    10.77     0.00     1.26
9         0.00     0.00    14.92     2.31    -0.57
10        0.00     0.00    19.79     0.00     2.32
11        0.00     0.00    16.75     0.00     1.96
15        0.00     0.00    10.30     0.00     1.21
16        0.00     0.00    13.63     0.00     1.59
17        0.97     0.00     0.00     0.00     3.25
18        0.00     0.00    17.59     0.12     1.94
19        0.00     0.00    21.27     0.35     2.13
20        0.00     0.00    22.77     0.00     2.66

> <gold pose ID>
ligprep_Molport_list.sdf:15|Molport_ligands|sdf|15|dock8

$$$$
ligprep_Molport_list.sdf:15|Molport_ligands|sdf|15|dock5
                    3D
 Schrodinger Suite 2020-2.
 30 33  0  0  1  0            999 V2000
   34.1674  -16.0271    5.6911 C   0  0  0  0  0  0
   34.5028  -14.6135    5.2494 C   0  0  0  0  0  0
   35.6642  -13.9842    5.6752 C   0  0  0  0  0  0
   35.9897  -12.6731    5.2744 C   0  0  0  0  0  0
   37.3149  -12.1841    5.8652 C   0  0  0  0  0  0
   38.0246  -10.9999    5.5763 C   0  0  0  0  0  0
   39.2168  -10.8258    6.2823 C   0  0  0  0  0  0
   39.4748  -11.8678    7.1435 C   0  0  0  0  0  0
   38.2297  -13.0600    7.0693 S   0  0  0  0  0  0
   35.0394  -12.0289    4.3947 C   0  0  0  0  0  0
   34.9318  -10.7390    3.7373 C   0  0  0  0  0  0
   35.8286   -9.6782    3.8025 N   0  0  0  0  0  0
   35.6983   -8.4812    3.1737 C   0  0  0  0  0  0
   36.5385   -7.5910    3.2823 O   0  0  0  0  0  0
   34.4903   -8.3600    2.3753 C   0  0  0  0  0  0
   33.5593   -9.3349    2.2497 C   0  0  0  0  0  0
   32.5238   -9.1247    1.5165 O   0  5  0  0  0  0
   33.7763  -10.5978    2.9619 C   0  0  0  0  0  0
   32.7474  -11.9921    2.9683 S   0  0  0  0  0  0
   33.8741  -12.8042    4.0335 C   0  0  0  0  0  0
   33.5999  -14.0418    4.4321 N   0  0  0  0  0  0
   34.9317  -16.4403    6.3505 H   0  0  0  0  0  0
   34.0807  -16.6864    4.8265 H   0  0  0  0  0  0
   33.2184  -16.0437    6.2286 H   0  0  0  0  0  0
   36.2998  -14.5572    6.3287 H   0  0  0  0  0  0
   37.7075  -10.2521    4.8676 H   0  0  0  0  0  0
   39.8644   -9.9692    6.1657 H   0  0  0  0  0  0
   40.3189  -11.9917    7.8055 H   0  0  0  0  0  0
   36.6671   -9.7655    4.3582 H   0  0  0  0  0  0
   34.3483   -7.4211    1.8576 H   0  0  0  0  0  0
  1  2  1  0  0  0
  1 22  1  0  0  0
  1 23  1  0  0  0
  1 24  1  0  0  0
  2  3  2  0  0  0
  2 21  1  0  0  0
  3  4  1  0  0  0
  3 25  1  0  0  0
  4  5  1  0  0  0
  4 10  2  0  0  0
  5  6  2  0  0  0
  5  9  1  0  0  0
  6  7  1  0  0  0
  6 26  1  0  0  0
  7  8  2  0  0  0
  7 27  1  0  0  0
  8  9  1  0  0  0
  8 28  1  0  0  0
 10 11  1  0  0  0
 10 20  1  0  0  0
 11 12  1  0  0  0
 11 18  2  0  0  0
 12 13  1  0  0  0
 12 29  1  0  0  0
 13 14  2  0  0  0
 13 15  1  0  0  0
 15 16  2  0  0  0
 15 30  1  0  0  0
 16 17  1  0  0  0
 16 18  1  0  0  0
 18 19  1  0  0  0
 19 20  1  0  0  0
 20 21  2  0  0  0
M  CHG  1  17  -1
M  END
> <Gold.Chemscore.Fitness>
46.8282

> <Gold.Version>
5.8.1

> <Gold.Chemscore.DG>
-40.8903

> <Gold.Chemscore.Hbond.Weighted>
-3.2944

> <Gold.Chemscore.Lipo.Weighted>
-32.116

> <Gold.Chemscore.Internal_Hbond.Weighted>
0

> <Gold.Chemscore.DEClash.Weighted>
2.3629

> <Gold.Chemscore.DEInternal.Weighted>
0.0262

> <Gold.Chemscore.Internal.Correction.Weighted>
0

> <Gold.Chemscore.Constraint>
-8.327

> <Gold.ChemScore.Ligand.Score.Contributions>
AtomID ChemScore.Hbond ChemScore.Metal ChemScore.Lipo ChemScore.DEClash ChemScore.total
1         0.00     0.00    27.78     0.00     3.25
2         0.00     0.00    24.26     0.11     2.73
3         0.00     0.00    21.15     0.00     2.47
4         0.00     0.00    18.90     0.00     2.21
5         0.00     0.00    15.42     0.00     1.80
6         0.00     0.00    11.25     0.00     1.32
7         0.00     0.00     8.55     0.00     1.00
8         0.00     0.00    10.18     0.00     1.19
9         0.00     0.00    14.69     2.23    -0.51
10        0.00     0.00    19.72     0.00     2.31
11        0.00     0.00    16.47     0.00     1.93
12        0.00     0.00     0.00     0.01    -0.01
15        0.00     0.00    10.24     0.00     1.20
16        0.00     0.00    13.80     0.00     1.61
17        0.99     0.00     0.00     0.00     3.29
18        0.00     0.00    17.66     0.00     2.07
19        0.00     0.00    21.61     0.00     2.53
20        0.00     0.00    22.91     0.00     2.68
21        0.00     0.00     0.00     0.01    -0.01

> <gold pose ID>
ligprep_Molport_list.sdf:15|Molport_ligands|sdf|15|dock5

$$$$
ligprep_Molport_list.sdf:16|Molport_ligands|sdf|16|dock4
                    3D
 Schrodinger Suite 2020-2.
 30 33  0  0  1  0            999 V2000
   32.5923   -8.3886    1.3006 O   0  5  0  0  0  0
   33.6866   -8.6662    1.9162 C   0  0  0  0  0  0
   34.6898   -7.7539    1.9352 C   0  0  0  0  0  0
   35.9727   -7.9513    2.5970 C   0  0  0  0  0  0
   36.8714   -7.1133    2.6043 O   0  0  0  0  0  0
   36.1021   -9.1539    3.2166 N   0  0  0  0  0  0
   35.1186  -10.1414    3.2416 C   0  0  0  0  0  0
   33.8958   -9.9415    2.6052 C   0  0  0  0  0  0
   32.8035  -11.2945    2.7527 S   0  0  0  0  0  0
   34.0081  -12.1614    3.6929 C   0  0  0  0  0  0
   33.7767  -13.3856    4.1624 N   0  0  0  0  0  0
   34.7748  -13.9663    4.8770 C   0  0  0  0  0  0
   35.9953  -13.3330    5.1229 C   0  0  0  0  0  0
   36.2500  -12.0433    4.6330 C   0  0  0  0  0  0
   35.2172  -11.4199    3.8831 C   0  0  0  0  0  0
   37.6017  -11.3866    4.9262 C   0  0  0  0  0  0
   38.2808  -12.1281    5.8011 F   0  0  0  0  0  0
   37.4851  -10.1604    5.4408 F   0  0  0  0  0  0
   38.3057  -11.2855    3.7989 F   0  0  0  0  0  0
   34.5045  -15.3477    5.4028 C   0  0  0  0  0  0
   35.1000  -16.0094    6.4805 C   0  0  0  0  0  0
   34.6071  -17.2999    6.6978 C   0  0  0  0  0  0
   33.6235  -17.6543    5.7912 C   0  0  0  0  0  0
   33.3030  -16.3842    4.6596 S   0  0  0  0  0  0
   34.5513   -6.8073    1.4311 H   0  0  0  0  0  0
   36.9876   -9.3013    3.6788 H   0  0  0  0  0  0
   36.7503  -13.8468    5.6983 H   0  0  0  0  0  0
   35.8721  -15.5750    7.0979 H   0  0  0  0  0  0
   34.9558  -17.9495    7.4871 H   0  0  0  0  0  0
   33.0808  -18.5863    5.7354 H   0  0  0  0  0  0
  1  2  1  0  0  0
  2  3  2  0  0  0
  2  8  1  0  0  0
  3  4  1  0  0  0
  3 25  1  0  0  0
  4  5  2  0  0  0
  4  6  1  0  0  0
  6  7  1  0  0  0
  6 26  1  0  0  0
  7  8  2  0  0  0
  7 15  1  0  0  0
  8  9  1  0  0  0
  9 10  1  0  0  0
 10 11  2  0  0  0
 10 15  1  0  0  0
 11 12  1  0  0  0
 12 13  2  0  0  0
 12 20  1  0  0  0
 13 14  1  0  0  0
 13 27  1  0  0  0
 14 15  2  0  0  0
 14 16  1  0  0  0
 16 17  1  0  0  0
 16 18  1  0  0  0
 16 19  1  0  0  0
 20 21  2  0  0  0
 20 24  1  0  0  0
 21 22  1  0  0  0
 21 28  1  0  0  0
 22 23  2  0  0  0
 22 29  1  0  0  0
 23 24  1  0  0  0
 23 30  1  0  0  0
M  CHG  1   1  -1
M  END
> <Gold.Chemscore.Fitness>
46.2537

> <Gold.Version>
5.8.1

> <Gold.Chemscore.DG>
-45.886

> <Gold.Chemscore.Hbond.Weighted>
-3.3031

> <Gold.Chemscore.Lipo.Weighted>
-37.1029

> <Gold.Chemscore.Internal_Hbond.Weighted>
0

> <Gold.Chemscore.DEClash.Weighted>
6.9891

> <Gold.Chemscore.DEInternal.Weighted>
0.2875

> <Gold.Chemscore.Internal.Correction.Weighted>
1.5416

> <Gold.Chemscore.Constraint>
-7.6444

> <Gold.ChemScore.Ligand.Score.Contributions>
AtomID ChemScore.Hbond ChemScore.Metal ChemScore.Lipo ChemScore.DEClash ChemScore.total
1         0.99     0.00     0.00     0.08     3.22
2         0.00     0.00    11.17     0.00     1.31
3         0.00     0.00     7.38     0.00     0.86
7         0.00     0.00    14.25     0.00     1.67
8         0.00     0.00    15.48     0.00     1.81
9         0.00     0.00    19.70     0.02     2.28
10        0.00     0.00    21.44     0.07     2.44
12        0.00     0.00    22.69     0.00     2.65
13        0.00     0.00    19.43     0.00     2.27
14        0.00     0.00    16.84     0.00     1.97
15        0.00     0.00    17.50     0.10     1.95
16        0.00     0.00    12.77     0.00     1.49
20        0.00     0.00    25.56     0.00     2.99
21        0.00     0.00    25.04     0.01     2.92
22        0.00     0.00    27.17     3.12     0.05
23        0.00     0.00    30.96     3.14     0.48
24        0.00     0.00    29.32     0.44     2.99

> <gold pose ID>
ligprep_Molport_list.sdf:16|Molport_ligands|sdf|16|dock4

$$$$
ligprep_Molport_list.sdf:16|Molport_ligands|sdf|16|dock9
                    3D
 Schrodinger Suite 2020-2.
 30 33  0  0  1  0            999 V2000
   32.5027   -8.4448    1.2673 O   0  5  0  0  0  0
   33.6247   -8.7266    1.8288 C   0  0  0  0  0  0
   34.6367   -7.8250    1.7838 C   0  0  0  0  0  0
   35.9503   -8.0280    2.3805 C   0  0  0  0  0  0
   36.8566   -7.1997    2.3303 O   0  0  0  0  0  0
   36.0996   -9.2242    3.0080 N   0  0  0  0  0  0
   35.1088  -10.2007    3.0968 C   0  0  0  0  0  0
   33.8566   -9.9955    2.5224 C   0  0  0  0  0  0
   32.7599  -11.3347    2.7439 S   0  0  0  0  0  0
   34.0030  -12.2029    3.6312 C   0  0  0  0  0  0
   33.7840  -13.4187    4.1279 N   0  0  0  0  0  0
   34.8121  -14.0012    4.7970 C   0  0  0  0  0  0
   36.0501  -13.3780    4.9709 C   0  0  0  0  0  0
   36.2919  -12.0973    4.4519 C   0  0  0  0  0  0
   35.2279  -11.4722    3.7487 C   0  0  0  0  0  0
   37.6637  -11.4516    4.6659 C   0  0  0  0  0  0
   38.3854  -12.1974    5.5023 F   0  0  0  0  0  0
   37.5870  -10.2236    5.1836 F   0  0  0  0  0  0
   38.3029  -11.3586    3.5001 F   0  0  0  0  0  0
   34.5556  -15.3730    5.3539 C   0  0  0  0  0  0
   35.1506  -16.0004    6.4522 C   0  0  0  0  0  0
   34.6729  -17.2918    6.6967 C   0  0  0  0  0  0
   33.7019  -17.6812    5.7909 C   0  0  0  0  0  0
   33.3744  -16.4432    4.6262 S   0  0  0  0  0  0
   34.4817   -6.8832    1.2755 H   0  0  0  0  0  0
   37.0065   -9.3754    3.4253 H   0  0  0  0  0  0
   36.8288  -13.8928    5.5129 H   0  0  0  0  0  0
   35.9115  -15.5409    7.0652 H   0  0  0  0  0  0
   35.0234  -17.9175    7.5044 H   0  0  0  0  0  0
   33.1721  -18.6214    5.7532 H   0  0  0  0  0  0
  1  2  1  0  0  0
  2  3  2  0  0  0
  2  8  1  0  0  0
  3  4  1  0  0  0
  3 25  1  0  0  0
  4  5  2  0  0  0
  4  6  1  0  0  0
  6  7  1  0  0  0
  6 26  1  0  0  0
  7  8  2  0  0  0
  7 15  1  0  0  0
  8  9  1  0  0  0
  9 10  1  0  0  0
 10 11  2  0  0  0
 10 15  1  0  0  0
 11 12  1  0  0  0
 12 13  2  0  0  0
 12 20  1  0  0  0
 13 14  1  0  0  0
 13 27  1  0  0  0
 14 15  2  0  0  0
 14 16  1  0  0  0
 16 17  1  0  0  0
 16 18  1  0  0  0
 16 19  1  0  0  0
 20 21  2  0  0  0
 20 24  1  0  0  0
 21 22  1  0  0  0
 21 28  1  0  0  0
 22 23  2  0  0  0
 22 29  1  0  0  0
 23 24  1  0  0  0
 23 30  1  0  0  0
M  CHG  1   1  -1
M  END
> <Gold.Chemscore.Fitness>
45.9295

> <Gold.Version>
5.8.1

> <Gold.Chemscore.DG>
-45.748

> <Gold.Chemscore.Hbond.Weighted>
-3.337

> <Gold.Chemscore.Lipo.Weighted>
-36.931

> <Gold.Chemscore.Internal_Hbond.Weighted>
0

> <Gold.Chemscore.DEClash.Weighted>
6.9251

> <Gold.Chemscore.DEInternal.Weighted>
0.3653

> <Gold.Chemscore.Internal.Correction.Weighted>
1.4957

> <Gold.Chemscore.Constraint>
-7.4719

> <Gold.ChemScore.Ligand.Score.Contributions>
AtomID ChemScore.Hbond ChemScore.Metal ChemScore.Lipo ChemScore.DEClash ChemScore.total
1         1.00     0.00     0.00     0.13     3.20
2         0.00     0.00    11.23     0.00     1.31
3         0.00     0.00     7.38     0.00     0.86
7         0.00     0.00    14.23     0.00     1.67
8         0.00     0.00    15.49     0.00     1.81
9         0.00     0.00    19.73     0.07     2.24
10        0.00     0.00    21.35     0.07     2.43
12        0.00     0.00    22.53     0.00     2.64
13        0.00     0.00    19.04     0.00     2.23
14        0.00     0.00    16.65     0.00     1.95
15        0.00     0.00    17.34     0.10     1.93
16        0.00     0.00    12.55     0.00     1.47
17        0.00     0.00     0.00     0.00    -0.00
20        0.00     0.00    25.48     0.00     2.98
21        0.00     0.00    25.02     0.01     2.91
22        0.00     0.00    27.12     3.12     0.05
23        0.00     0.00    30.87     2.97     0.64
24        0.00     0.00    29.46     0.44     3.00

> <gold pose ID>
ligprep_Molport_list.sdf:16|Molport_ligands|sdf|16|dock9

$$$$
ligprep_Molport_list.sdf:16|Molport_ligands|sdf|16|dock6
                    3D
 Schrodinger Suite 2020-2.
 30 33  0  0  1  0            999 V2000
   32.6014   -8.0795    0.6916 O   0  5  0  0  0  0
   33.6653   -8.2795    1.3856 C   0  0  0  0  0  0
   34.6303   -7.3271    1.4143 C   0  0  0  0  0  0
   35.8764   -7.4367    2.1611 C   0  0  0  0  0  0
   36.7408   -6.5634    2.1760 O   0  0  0  0  0  0
   36.0126   -8.5989    2.8524 N   0  0  0  0  0  0
   35.0674   -9.6232    2.8729 C   0  0  0  0  0  0
   33.8795   -9.5072    2.1548 C   0  0  0  0  0  0
   32.8320  -10.8942    2.3109 S   0  0  0  0  0  0
   34.0082  -11.6605    3.3672 C   0  0  0  0  0  0
   33.7946  -12.8669    3.8886 N   0  0  0  0  0  0
   34.7680  -13.3679    4.6921 C   0  0  0  0  0  0
   35.9462  -12.6731    4.9751 C   0  0  0  0  0  0
   36.1818  -11.4015    4.4313 C   0  0  0  0  0  0
   35.1745  -10.8612    3.5882 C   0  0  0  0  0  0
   37.4871  -10.6755    4.7681 C   0  0  0  0  0  0
   38.2656  -10.6269    3.6872 F   0  0  0  0  0  0
   38.1810  -11.2736    5.7390 F   0  0  0  0  0  0
   37.2192   -9.4334    5.1704 F   0  0  0  0  0  0
   34.5180  -14.7298    5.2758 C   0  0  0  0  0  0
   35.2574  -15.4215    6.2395 C   0  0  0  0  0  0
   34.7391  -16.6807    6.5579 C   0  0  0  0  0  0
   33.5916  -16.9804    5.8449 C   0  0  0  0  0  0
   33.1471  -15.6973    4.7713 S   0  0  0  0  0  0
   34.4875   -6.4146    0.8517 H   0  0  0  0  0  0
   36.8729   -8.6854    3.3738 H   0  0  0  0  0  0
   36.6831  -13.1247    5.6218 H   0  0  0  0  0  0
   36.1502  -15.0306    6.7044 H   0  0  0  0  0  0
   35.1854  -17.3470    7.2815 H   0  0  0  0  0  0
   32.9960  -17.8796    5.8987 H   0  0  0  0  0  0
  1  2  1  0  0  0
  2  3  2  0  0  0
  2  8  1  0  0  0
  3  4  1  0  0  0
  3 25  1  0  0  0
  4  5  2  0  0  0
  4  6  1  0  0  0
  6  7  1  0  0  0
  6 26  1  0  0  0
  7  8  2  0  0  0
  7 15  1  0  0  0
  8  9  1  0  0  0
  9 10  1  0  0  0
 10 11  2  0  0  0
 10 15  1  0  0  0
 11 12  1  0  0  0
 12 13  2  0  0  0
 12 20  1  0  0  0
 13 14  1  0  0  0
 13 27  1  0  0  0
 14 15  2  0  0  0
 14 16  1  0  0  0
 16 17  1  0  0  0
 16 18  1  0  0  0
 16 19  1  0  0  0
 20 21  2  0  0  0
 20 24  1  0  0  0
 21 22  1  0  0  0
 21 28  1  0  0  0
 22 23  2  0  0  0
 22 29  1  0  0  0
 23 24  1  0  0  0
 23 30  1  0  0  0
M  CHG  1   1  -1
M  END
> <Gold.Chemscore.Fitness>
45.8567

> <Gold.Version>
5.8.1

> <Gold.Chemscore.DG>
-43.0707

> <Gold.Chemscore.Hbond.Weighted>
-3.0718

> <Gold.Chemscore.Lipo.Weighted>
-34.5189

> <Gold.Chemscore.Internal_Hbond.Weighted>
0

> <Gold.Chemscore.DEClash.Weighted>
4.3959

> <Gold.Chemscore.DEInternal.Weighted>
0.2335

> <Gold.Chemscore.Internal.Correction.Weighted>
1.5416

> <Gold.Chemscore.Constraint>
-7.4154

> <Gold.ChemScore.Ligand.Score.Contributions>
AtomID ChemScore.Hbond ChemScore.Metal ChemScore.Lipo ChemScore.DEClash ChemScore.total
1         0.92     0.00     0.00     0.16     2.91
2         0.00     0.00     9.16     0.00     1.07
3         0.00     0.00     5.43     0.00     0.63
7         0.00     0.00    12.87     0.00     1.51
8         0.00     0.00    13.51     0.00     1.58
9         0.00     0.00    17.88     1.07     1.02
10        0.00     0.00    20.06     0.06     2.29
12        0.00     0.00    22.22     0.00     2.60
13        0.00     0.00    18.87     0.00     2.21
14        0.00     0.00    15.68     0.00     1.83
15        0.00     0.00    16.02     0.00     1.87
16        0.00     0.00    11.02     0.00     1.29
19        0.00     0.00     0.00     0.86    -0.86
20        0.00     0.00    24.38     0.01     2.84
21        0.00     0.00    23.79     0.00     2.78
22        0.00     0.00    26.60     0.20     2.91
23        0.00     0.00    30.33     1.45     2.09
24        0.00     0.00    28.07     0.58     2.71

> <gold pose ID>
ligprep_Molport_list.sdf:16|Molport_ligands|sdf|16|dock6

$$$$
ligprep_Molport_list.sdf:17|Molport_ligands|sdf|17|dock2
                    3D
 Schrodinger Suite 2020-2.
 33 36  0  0  1  0            999 V2000
   32.4238   -8.1525    0.8040 O   0  5  0  0  0  0
   33.4741   -8.3305    1.5244 C   0  0  0  0  0  0
   34.3910   -7.3359    1.6226 C   0  0  0  0  0  0
   35.6168   -7.4181    2.4058 C   0  0  0  0  0  0
   36.4380   -6.5073    2.4830 O   0  0  0  0  0  0
   35.7860   -8.5993    3.0563 N   0  0  0  0  0  0
   34.8906   -9.6665    3.0052 C   0  0  0  0  0  0
   33.7224   -9.5771    2.2521 C   0  0  0  0  0  0
   32.7385  -11.0167    2.3182 S   0  0  0  0  0  0
   33.9162  -11.7702    3.3819 C   0  0  0  0  0  0
   33.7458  -13.0067    3.8459 N   0  0  0  0  0  0
   34.7137  -13.4972    4.6639 C   0  0  0  0  0  0
   35.8491  -12.7580    5.0093 C   0  0  0  0  0  0
   36.0392  -11.4542    4.5276 C   0  0  0  0  0  0
   35.0343  -10.9267    3.6744 C   0  0  0  0  0  0
   37.2969  -10.6827    4.9359 C   0  0  0  0  0  0
   37.9367  -11.3453    5.8993 F   0  0  0  0  0  0
   38.1045  -10.5523    3.8836 F   0  0  0  0  0  0
   37.0314   -9.4581    5.3955 F   0  0  0  0  0  0
   34.5004  -14.8899    5.1651 C   0  0  0  0  0  0
   35.2886  -15.3994    6.2071 C   0  0  0  0  0  0
   35.0984  -16.6960    6.6780 C   0  0  0  0  0  0
   34.1150  -17.4997    6.1091 C   0  0  0  0  0  0
   33.9299  -18.7593    6.5648 F   0  0  0  0  0  0
   33.3207  -17.0144    5.0748 C   0  0  0  0  0  0
   33.5131  -15.7171    4.6071 C   0  0  0  0  0  0
   34.2230   -6.4087    1.0919 H   0  0  0  0  0  0
   36.6318   -8.6666    3.6036 H   0  0  0  0  0  0
   36.5921  -13.2086    5.6508 H   0  0  0  0  0  0
   36.0516  -14.7891    6.6676 H   0  0  0  0  0  0
   35.7109  -17.0756    7.4826 H   0  0  0  0  0  0
   32.5588  -17.6415    4.6354 H   0  0  0  0  0  0
   32.8906  -15.3591    3.7996 H   0  0  0  0  0  0
  1  2  1  0  0  0
  2  3  2  0  0  0
  2  8  1  0  0  0
  3  4  1  0  0  0
  3 27  1  0  0  0
  4  5  2  0  0  0
  4  6  1  0  0  0
  6  7  1  0  0  0
  6 28  1  0  0  0
  7  8  2  0  0  0
  7 15  1  0  0  0
  8  9  1  0  0  0
  9 10  1  0  0  0
 10 11  2  0  0  0
 10 15  1  0  0  0
 11 12  1  0  0  0
 12 13  2  0  0  0
 12 20  1  0  0  0
 13 14  1  0  0  0
 13 29  1  0  0  0
 14 15  2  0  0  0
 14 16  1  0  0  0
 16 17  1  0  0  0
 16 18  1  0  0  0
 16 19  1  0  0  0
 20 21  2  0  0  0
 20 26  1  0  0  0
 21 22  1  0  0  0
 21 30  1  0  0  0
 22 23  2  0  0  0
 22 31  1  0  0  0
 23 24  1  0  0  0
 23 25  1  0  0  0
 25 26  2  0  0  0
 25 32  1  0  0  0
 26 33  1  0  0  0
M  CHG  1   1  -1
M  END
> <Gold.Chemscore.Fitness>
42.3488

> <Gold.Version>
5.8.1

> <Gold.Chemscore.DG>
-47.4216

> <Gold.Chemscore.Hbond.Weighted>
-3.3138

> <Gold.Chemscore.Lipo.Weighted>
-38.6278

> <Gold.Chemscore.Internal_Hbond.Weighted>
0

> <Gold.Chemscore.DEClash.Weighted>
12.8088

> <Gold.Chemscore.DEInternal.Weighted>
0.2189

> <Gold.Chemscore.Internal.Correction.Weighted>
1.5394

> <Gold.Chemscore.Constraint>
-7.9548

> <Gold.ChemScore.Ligand.Score.Contributions>
AtomID ChemScore.Hbond ChemScore.Metal ChemScore.Lipo ChemScore.DEClash ChemScore.total
1         0.99     0.00     0.00     1.16     2.15
2         0.00     0.00     9.78     0.00     1.14
3         0.00     0.00     6.09     0.00     0.71
7         0.00     0.00    13.54     0.00     1.58
8         0.00     0.00    14.17     0.00     1.65
9         0.00     0.00    18.25     1.43     0.71
10        0.00     0.00    20.40     0.29     2.09
11        0.00     0.00     0.00     0.04    -0.04
12        0.00     0.00    22.37     0.00     2.62
13        0.00     0.00    19.10     0.00     2.23
14        0.00     0.00    16.20     0.00     1.89
15        0.00     0.00    16.63     0.00     1.95
16        0.00     0.00    11.56     0.00     1.35
19        0.00     0.00     0.00     1.47    -1.47
20        0.00     0.00    24.60     0.01     2.87
21        0.00     0.00    23.69     0.00     2.77
22        0.00     0.00    25.99     0.66     2.38
23        0.00     0.00    29.58     3.24     0.22
24        0.00     0.00     0.00     4.34    -4.34
25        0.00     0.00    30.87     0.12     3.50
26        0.00     0.00    27.79     0.04     3.21

> <gold pose ID>
ligprep_Molport_list.sdf:17|Molport_ligands|sdf|17|dock2

$$$$
ligprep_Molport_list.sdf:17|Molport_ligands|sdf|17|dock7
                    3D
 Schrodinger Suite 2020-2.
 33 36  0  0  1  0            999 V2000
   32.5046   -8.1013    0.8310 O   0  5  0  0  0  0
   33.5039   -8.2432    1.6278 C   0  0  0  0  0  0
   34.3583   -7.2068    1.8161 C   0  0  0  0  0  0
   35.5226   -7.2457    2.6910 C   0  0  0  0  0  0
   36.2876   -6.2972    2.8494 O   0  0  0  0  0  0
   35.7016   -8.4316    3.3303 N   0  0  0  0  0  0
   34.8688   -9.5406    3.1893 C   0  0  0  0  0  0
   33.7591   -9.4922    2.3489 C   0  0  0  0  0  0
   32.8483  -10.9802    2.3108 S   0  0  0  0  0  0
   33.9777  -11.6982    3.4488 C   0  0  0  0  0  0
   33.8356  -12.9519    3.8746 N   0  0  0  0  0  0
   34.7615  -13.4122    4.7563 C   0  0  0  0  0  0
   35.8274  -12.6255    5.2034 C   0  0  0  0  0  0
   35.9869  -11.3032    4.7627 C   0  0  0  0  0  0
   35.0250  -10.8070    3.8437 C   0  0  0  0  0  0
   37.1681  -10.4797    5.2826 C   0  0  0  0  0  0
   37.7031  -11.0829    6.3438 F   0  0  0  0  0  0
   38.0928  -10.3701    4.3289 F   0  0  0  0  0  0
   36.8207   -9.2451    5.6520 F   0  0  0  0  0  0
   34.5821  -14.8249    5.2129 C   0  0  0  0  0  0
   35.4240  -15.3677    6.1943 C   0  0  0  0  0  0
   35.2655  -16.6830    6.6232 C   0  0  0  0  0  0
   34.2603  -17.4722    6.0727 C   0  0  0  0  0  0
   34.1058  -18.7499    6.4876 F   0  0  0  0  0  0
   33.4127  -16.9539    5.0983 C   0  0  0  0  0  0
   33.5735  -15.6381    4.6724 C   0  0  0  0  0  0
   34.1843   -6.2771    1.2916 H   0  0  0  0  0  0
   36.5050   -8.4693    3.9407 H   0  0  0  0  0  0
   36.5410  -13.0531    5.8923 H   0  0  0  0  0  0
   36.2050  -14.7693    6.6401 H   0  0  0  0  0  0
   35.9194  -17.0882    7.3814 H   0  0  0  0  0  0
   32.6339  -17.5698    4.6729 H   0  0  0  0  0  0
   32.9097  -15.2544    3.9111 H   0  0  0  0  0  0
  1  2  1  0  0  0
  2  3  2  0  0  0
  2  8  1  0  0  0
  3  4  1  0  0  0
  3 27  1  0  0  0
  4  5  2  0  0  0
  4  6  1  0  0  0
  6  7  1  0  0  0
  6 28  1  0  0  0
  7  8  2  0  0  0
  7 15  1  0  0  0
  8  9  1  0  0  0
  9 10  1  0  0  0
 10 11  2  0  0  0
 10 15  1  0  0  0
 11 12  1  0  0  0
 12 13  2  0  0  0
 12 20  1  0  0  0
 13 14  1  0  0  0
 13 29  1  0  0  0
 14 15  2  0  0  0
 14 16  1  0  0  0
 16 17  1  0  0  0
 16 18  1  0  0  0
 16 19  1  0  0  0
 20 21  2  0  0  0
 20 26  1  0  0  0
 21 22  1  0  0  0
 21 30  1  0  0  0
 22 23  2  0  0  0
 22 31  1  0  0  0
 23 24  1  0  0  0
 23 25  1  0  0  0
 25 26  2  0  0  0
 25 32  1  0  0  0
 26 33  1  0  0  0
M  CHG  1   1  -1
M  END
> <Gold.Chemscore.Fitness>
41.8658

> <Gold.Version>
5.8.1

> <Gold.Chemscore.DG>
-47.0939

> <Gold.Chemscore.Hbond.Weighted>
-3.2668

> <Gold.Chemscore.Lipo.Weighted>
-38.3471

> <Gold.Chemscore.Internal_Hbond.Weighted>
0

> <Gold.Chemscore.DEClash.Weighted>
12.5949

> <Gold.Chemscore.DEInternal.Weighted>
0.523

> <Gold.Chemscore.Internal.Correction.Weighted>
1.5385

> <Gold.Chemscore.Constraint>
-7.8898

> <Gold.ChemScore.Ligand.Score.Contributions>
AtomID ChemScore.Hbond ChemScore.Metal ChemScore.Lipo ChemScore.DEClash ChemScore.total
1         0.98     0.00     0.00     0.20     3.06
2         0.00     0.00     9.73     0.00     1.14
3         0.00     0.00     6.21     0.00     0.73
7         0.00     0.00    13.46     0.00     1.57
8         0.00     0.00    14.09     0.00     1.65
9         0.00     0.00    18.08     1.43     0.69
10        0.00     0.00    20.40     0.06     2.33
11        0.00     0.00     0.00     0.04    -0.04
12        0.00     0.00    22.28     0.00     2.61
13        0.00     0.00    19.17     0.00     2.24
14        0.00     0.00    15.89     0.00     1.86
15        0.00     0.00    16.55     0.00     1.94
16        0.00     0.00    11.37     0.00     1.33
19        0.00     0.00     0.00     2.47    -2.47
20        0.00     0.00    24.26     0.01     2.83
21        0.00     0.00    23.42     0.38     2.36
22        0.00     0.00    25.47     1.25     1.73
23        0.00     0.00    29.13     2.74     0.66
24        0.00     0.00     0.00     3.89    -3.89
25        0.00     0.00    30.68     0.12     3.47
26        0.00     0.00    27.57     0.01     3.22

> <gold pose ID>
ligprep_Molport_list.sdf:17|Molport_ligands|sdf|17|dock7

$$$$
