@<TRIPOS>MOLECULE
6.21404598693
    81    86     1     0     0
SMALL
USER_CHARGES
****
Generated from the CSD

@<TRIPOS>ATOM
     1 C       53.8859  48.8686  -4.3565   C.3       1 RES1   0.0000
     2 C       52.9519  48.8110  -3.1251   C.3       1 RES1   0.0000
     3 C       53.5003  47.8211  -2.0608   C.3       1 RES1   0.0000
     4 C       52.4102  46.7345  -1.9712   C.3       1 RES1   0.0000
     5 C       52.3691  45.8478  -0.7036   C.3       1 RES1   2.3317
     6 C       53.6935  45.1775  -0.4754   C.2       1 RES1   2.2596
     7 C       53.8111  43.9372   0.0132   C.2       1 RES1   6.0608
     8 C       52.6227  43.1342   0.3865   C.2       1 RES1  31.8822
     9 C       52.7990  41.9066   0.8997   C.2       1 RES1  14.9249
    10 C       51.5709  41.0992   1.2243   C.ar      1 RES1  34.0174
    11 C       50.3225  41.4500   0.7575   C.ar      1 RES1  33.9692
    12 C       49.4510  40.5012   1.2832   C.ar      1 RES1  34.0043
    13 N       50.1713  39.6182   2.0116   N.ar      1 RES1  38.2503
    14 N       51.4578  39.9788   1.9591   N.ar      1 RES1  39.1428
    15 C       52.5121  39.3449   2.5391   C.ar      1 RES1  34.9623
    16 C       52.6000  37.9527   2.4950   C.ar      1 RES1  37.4094
    17 C       53.6853  37.3031   3.0848   C.ar      1 RES1  12.8020
    18 C       54.6804  38.0458   3.7222   C.ar      1 RES1   6.8524
    19 C       54.5902  39.4379   3.7699   C.ar      1 RES1   5.3460
    20 C       53.5058  40.0876   3.1784   C.ar      1 RES1  10.7954
    21 C       50.1345  42.6572  -0.1409   C.3       1 RES1  33.7070
    22 C       51.2233  43.7164   0.2088   C.3       1 RES1  29.3447
    23 C       51.2817  44.7632  -0.9388   C.3       1 RES1  11.0927
    24 C       49.9004  45.3495  -1.3889   C.3       1 RES1   5.7494
    25 C       49.9505  46.5062  -2.4354   C.3       1 RES1   0.0000
    26 C       51.1016  47.5206  -2.1933   C.3       1 RES1   0.0000
    27 C       51.5059  48.3253  -3.4570   C.3       1 RES1   0.0000
    28 C       50.4868  49.3735  -3.8452   C.2       1 RES1   0.0000
    29 O       50.7999  50.5528  -3.8391   O.2       1 RES1   0.0000
    30 C       49.0800  48.9708  -4.2044   C.3       1 RES1   0.0000
    31 O       48.7165  49.5672  -5.4550   O.3       1 RES1   0.0000
    32 O       51.5503  47.4082  -4.5607   O.3       1 RES1   0.0000
    33 C       50.7410  48.5209  -1.0528   C.3       1 RES1   0.0000
    34 O       48.6956  45.2380  -0.6095   O.3       1 RES1   4.0410
    35 C       50.8613  44.3507   1.5753   C.3       1 RES1  13.2185
    36 C       55.1976  43.3655   0.1865   C.3       1 RES1   5.2474
    37 H1      54.0314  47.8655  -4.7845   H         1 RES1   0.0000
    38 H2      54.8652  49.2639  -4.0469   H         1 RES1   0.0000
    39 H3      53.4628  49.5358  -5.1217   H         1 RES1   0.0000
    40 H4      52.9492  49.8102  -2.6682   H         1 RES1   0.0000
    41 H5      53.6191  48.3212  -1.0879   H         1 RES1   0.0000
    42 H6      54.4678  47.3956  -2.3663   H         1 RES1   0.0000
    43 H7      52.5723  46.0695  -2.8335   H         1 RES1   0.0000
    44 H8      52.1725  46.4782   0.1737   H         1 RES1   0.0000
    45 H9      54.5914  45.7437  -0.7127   H         1 RES1   0.0000
    46 H10     53.7689  41.4547   1.0926   H         1 RES1   0.0000
    47 H11     48.3779  40.4736   1.1333   H         1 RES1   0.0000
    48 H12     51.8250  37.3760   2.0024   H         1 RES1   0.0000
    49 H13     53.7553  36.2216   3.0479   H         1 RES1   0.0000
    50 H14     55.5237  37.5411   4.1806   H         1 RES1   0.0000
    51 H15     55.3627  40.0145   4.2664   H         1 RES1   0.0000
    52 H16     53.4347  41.1688   3.2147   H         1 RES1   0.0000
    53 H17     50.2538  42.3191  -1.1809   H         1 RES1   0.0000
    54 H18     49.1140  43.0340   0.0053   H         1 RES1   0.0000
    55 H19     51.6225  44.1910  -1.8154   H         1 RES1   0.0000
    56 H20     50.0404  46.0446  -0.5603   H         1 RES1   0.0000
    57 H21     50.0890  46.0038  -3.4031   H         1 RES1   0.0000
    58 H22     48.9867  47.0368  -2.4625   H         1 RES1   0.0000
    59 H23     48.3593  49.2566  -3.4256   H         1 RES1   0.0000
    60 H24     49.0482  47.8764  -4.3182   H         1 RES1   0.0000
    61 H25     48.6373  50.5102  -5.3657   H         1 RES1   0.0000
    62 H26     52.4402  47.1448  -4.7642   H         1 RES1   0.0000
    63 H27     51.5265  49.2734  -0.9118   H         1 RES1   0.0000
    64 H28     50.5733  48.0535  -0.0751   H         1 RES1   0.0000
    65 H29     49.8129  49.0435  -1.3268   H         1 RES1   0.0000
    66 H30     48.8841  44.8066   0.2165   H         1 RES1   0.0000
    67 H31     51.6379  45.0617   1.8903   H         1 RES1   0.0000
    68 H32     49.8947  44.8712   1.5309   H         1 RES1   0.0000
    69 H33     50.7951  43.5609   2.3379   H         1 RES1   0.0000
    70 H34     55.2901  42.4340  -0.3917   H         1 RES1   0.0000
    71 H35     55.9757  44.0592  -0.1641   H         1 RES1   0.0000
    72 H36     55.3822  43.1573   1.2509   H         1 RES1   0.0000
    73 ****    49.8042  38.8299   2.5053   Du        1 RES1  38.2503
    74 ****    51.7268  50.8227  -3.5783   Du        1 RES1   0.0000
    75 ****    50.1296  51.2494  -4.0950   Du        1 RES1   0.0000
    76 ****    47.8403  49.1909  -5.7561   Du        1 RES1   0.0000
    77 ****    49.4197  49.3594  -6.1348   Du        1 RES1   0.0000
    78 ****    51.1513  47.8494  -5.3646   Du        1 RES1   0.0000
    79 ****    51.0171  46.5950  -4.3278   Du        1 RES1   0.0000
    80 ****    48.0205  44.7026  -1.1169   Du        1 RES1   2.9196
    81 ****    48.3303  46.1516  -0.4308   Du        1 RES1   0.8293
@<TRIPOS>BOND
     1     1     2    1
     2     2     3    1
     3     3     4    1
     4     4     5    1
     5     5     6    1
     6     6     7    2
     7     7     8    1
     8     8     9    2
     9     9    10    1
    10    10    11   ar
    11    11    12   ar
    12    12    13   ar
    13    13    14   ar
    14    10    14   ar
    15    14    15    1
    16    15    16   ar
    17    16    17   ar
    18    17    18   ar
    19    18    19   ar
    20    19    20   ar
    21    15    20   ar
    22    11    21    1
    23    21    22    1
    24     8    22    1
    25    22    23    1
    26     5    23    1
    27    23    24    1
    28    24    25    1
    29    25    26    1
    30     4    26    1
    31    26    27    1
    32     2    27    1
    33    27    28    1
    34    28    29    2
    35    28    30    1
    36    30    31    1
    37    27    32    1
    38    26    33    1
    39    24    34    1
    40    22    35    1
    41     7    36    1
    42     1    37    1
    43     1    38    1
    44     1    39    1
    45     2    40    1
    46     3    41    1
    47     3    42    1
    48     4    43    1
    49     5    44    1
    50     6    45    1
    51     9    46    1
    52    12    47    1
    53    16    48    1
    54    17    49    1
    55    18    50    1
    56    19    51    1
    57    20    52    1
    58    21    53    1
    59    21    54    1
    60    23    55    1
    61    24    56    1
    62    25    57    1
    63    25    58    1
    64    30    59    1
    65    30    60    1
    66    31    61    1
    67    32    62    1
    68    33    63    1
    69    33    64    1
    70    33    65    1
    71    34    66    1
    72    35    67    1
    73    35    68    1
    74    35    69    1
    75    36    70    1
    76    36    71    1
    77    36    72    1
    78    13    73    1
    79    29    74    1
    80    29    75    1
    81    31    76    1
    82    31    77    1
    83    32    78    1
    84    32    79    1
    85    34    80    1
    86    34    81    1
@<TRIPOS>SUBSTRUCTURE
     1 RES1        1 GROUP             0 ****  ****    0  
@<TRIPOS>MOLECULE
6.1751435856
    81    86     1     0     0
SMALL
USER_CHARGES
****
Generated from the CSD

@<TRIPOS>ATOM
     1 C       54.2842  48.2250  -4.3515   C.3       1 RES1   0.0000
     2 C       53.3921  48.2504  -3.0883   C.3       1 RES1   0.0000
     3 C       53.9109  47.2440  -2.0245   C.3       1 RES1   0.0000
     4 C       52.7552  46.2343  -1.8774   C.3       1 RES1   0.0000
     5 C       52.7000  45.3736  -0.5926   C.3       1 RES1   6.3224
     6 C       53.9844  44.6203  -0.3967   C.2       1 RES1   3.2687
     7 C       54.0368  43.3833   0.1111   C.2       1 RES1   8.8017
     8 C       52.8117  42.6677   0.5396   C.2       1 RES1  15.3952
     9 C       52.9244  41.4398   1.0699   C.2       1 RES1  15.5822
    10 C       51.6577  40.7217   1.4512   C.ar      1 RES1  33.1513
    11 C       50.4196  41.1472   1.0203   C.ar      1 RES1  34.0079
    12 C       49.5063  40.2676   1.5933   C.ar      1 RES1  34.0043
    13 N       50.1917  39.3508   2.3134   N.ar      1 RES1  38.2503
    14 N       51.4966  39.6238   2.2105   N.ar      1 RES1  39.1428
    15 C       52.5264  38.9307   2.7663   C.ar      1 RES1  37.4094
    16 C       53.4286  39.5788   3.6113   C.ar      1 RES1  12.4010
    17 C       54.4815  38.8657   4.1865   C.ar      1 RES1   5.7518
    18 C       54.6342  37.5055   3.9130   C.ar      1 RES1   5.8328
    19 C       53.7343  36.8585   3.0646   C.ar      1 RES1  12.3508
    20 C       52.6803  37.5712   2.4910   C.ar      1 RES1  30.9590
    21 C       50.2805  42.3491   0.1061   C.3       1 RES1  33.7070
    22 C       51.4485  43.3390   0.3985   C.3       1 RES1  28.2627
    23 C       51.5357  44.3602  -0.7701   C.3       1 RES1  15.5950
    24 C       50.1813  45.0298  -1.1841   C.3       1 RES1  12.9128
    25 C       50.2709  46.1629  -2.2535   C.3       1 RES1   0.0000
    26 C       51.4944  47.1022  -2.0699   C.3       1 RES1   0.0000
    27 C       51.9064  47.8568  -3.3616   C.3       1 RES1   0.0000
    28 C       50.9459  48.9641  -3.7349   C.2       1 RES1   0.0000
    29 O       51.3418  50.1173  -3.7834   O.2       1 RES1   0.0000
    30 C       49.4977  48.6539  -4.0120   C.3       1 RES1   0.0000
    31 O       48.6729  49.3242  -3.0516   O.3       1 RES1   0.0000
    32 O       51.8513  46.9206  -4.4486   O.3       1 RES1   0.0000
    33 C       51.2410  48.1432  -0.9370   C.3       1 RES1   0.0000
    34 O       48.9998  45.0121  -0.3623   O.3       1 RES1   4.5972
    35 C       51.1775  44.0187   1.7642   C.3       1 RES1  12.4968
    36 C       55.3877  42.7232   0.2481   C.3       1 RES1   4.4071
    37 H1      54.3478  47.2074  -4.7651   H         1 RES1   0.0000
    38 H2      55.2977  48.5592  -4.0829   H         1 RES1   0.0000
    39 H3      53.8794  48.9060  -5.1145   H         1 RES1   0.0000
    40 H4      53.4716  49.2551  -2.6506   H         1 RES1   0.0000
    41 H5      54.0966  47.7513  -1.0659   H         1 RES1   0.0000
    42 H6      54.8369  46.7499  -2.3546   H         1 RES1   0.0000
    43 H7      52.8425  45.5457  -2.7319   H         1 RES1   0.0000
    44 H8      52.5765  46.0302   0.2788   H         1 RES1   0.0000
    45 H9      54.9089  45.1213  -0.6750   H         1 RES1   0.0000
    46 H10     53.8684  40.9275   1.2383   H         1 RES1   0.0000
    47 H11     48.4291  40.3092   1.4804   H         1 RES1   0.0000
    48 H12     53.3114  40.6362   3.8207   H         1 RES1   0.0000
    49 H13     55.1808  39.3684   4.8453   H         1 RES1   0.0000
    50 H14     55.4523  36.9514   4.3598   H         1 RES1   0.0000
    51 H15     53.8540  35.8021   2.8513   H         1 RES1   0.0000
    52 H16     51.9806  37.0697   1.8319   H         1 RES1   0.0000
    53 H17     50.3405  41.9865  -0.9307   H         1 RES1   0.0000
    54 H18     49.2929  42.7956   0.2796   H         1 RES1   0.0000
    55 H19     51.8069  43.7520  -1.6467   H         1 RES1   0.0000
    56 H20     50.3959  45.7278  -0.3741   H         1 RES1   0.0000
    57 H21     50.3419  45.6364  -3.2156   H         1 RES1   0.0000
    58 H22     49.3441  46.7562  -2.2580   H         1 RES1   0.0000
    59 H23     49.2981  47.5735  -3.9931   H         1 RES1   0.0000
    60 H24     49.2445  49.0335  -5.0137   H         1 RES1   0.0000
    61 H25     47.7531  49.2120  -3.2638   H         1 RES1   0.0000
    62 H26     51.0572  47.0213  -4.9603   H         1 RES1   0.0000
    63 H27     52.0790  48.8438  -0.8371   H         1 RES1   0.0000
    64 H28     51.0772  47.7045   0.0545   H         1 RES1   0.0000
    65 H29     50.3405  48.7219  -1.1892   H         1 RES1   0.0000
    66 H30     48.2593  44.6967  -0.8683   H         1 RES1   0.0000
    67 H31     52.0099  44.6815   2.0392   H         1 RES1   0.0000
    68 H32     50.2464  44.6018   1.7427   H         1 RES1   0.0000
    69 H33     51.0859  43.2480   2.5435   H         1 RES1   0.0000
    70 H34     55.3980  41.7781  -0.3151   H         1 RES1   0.0000
    71 H35     56.1971  43.3575  -0.1418   H         1 RES1   0.0000
    72 H36     55.5953  42.5210   1.3094   H         1 RES1   0.0000
    73 ****    49.7908  38.5971   2.8342   Du        1 RES1  36.0711
    74 ****    52.2975  50.3270  -3.5768   Du        1 RES1   0.0000
    75 ****    50.7105  50.8527  -4.0297   Du        1 RES1   0.0000
    76 ****    48.8938  50.2995  -3.0525   Du        1 RES1   0.0000
    77 ****    48.8495  48.9433  -2.1440   Du        1 RES1   0.0000
    78 ****    51.8824  45.9922  -4.0783   Du        1 RES1   0.0000
    79 ****    52.6411  47.0686  -5.0439   Du        1 RES1   0.0000
    80 ****    48.8086  45.9378  -0.0361   Du        1 RES1   3.2164
    81 ****    49.1488  44.4072   0.4199   Du        1 RES1  13.2295
@<TRIPOS>BOND
     1     1     2    1
     2     2     3    1
     3     3     4    1
     4     4     5    1
     5     5     6    1
     6     6     7    2
     7     7     8    1
     8     8     9    2
     9     9    10    1
    10    10    11   ar
    11    11    12   ar
    12    12    13   ar
    13    13    14   ar
    14    10    14   ar
    15    14    15    1
    16    15    16   ar
    17    16    17   ar
    18    17    18   ar
    19    18    19   ar
    20    19    20   ar
    21    15    20   ar
    22    11    21    1
    23    21    22    1
    24     8    22    1
    25    22    23    1
    26     5    23    1
    27    23    24    1
    28    24    25    1
    29    25    26    1
    30     4    26    1
    31    26    27    1
    32     2    27    1
    33    27    28    1
    34    28    29    2
    35    28    30    1
    36    30    31    1
    37    27    32    1
    38    26    33    1
    39    24    34    1
    40    22    35    1
    41     7    36    1
    42     1    37    1
    43     1    38    1
    44     1    39    1
    45     2    40    1
    46     3    41    1
    47     3    42    1
    48     4    43    1
    49     5    44    1
    50     6    45    1
    51     9    46    1
    52    12    47    1
    53    16    48    1
    54    17    49    1
    55    18    50    1
    56    19    51    1
    57    20    52    1
    58    21    53    1
    59    21    54    1
    60    23    55    1
    61    24    56    1
    62    25    57    1
    63    25    58    1
    64    30    59    1
    65    30    60    1
    66    31    61    1
    67    32    62    1
    68    33    63    1
    69    33    64    1
    70    33    65    1
    71    34    66    1
    72    35    67    1
    73    35    68    1
    74    35    69    1
    75    36    70    1
    76    36    71    1
    77    36    72    1
    78    13    73    1
    79    29    74    1
    80    29    75    1
    81    31    76    1
    82    31    77    1
    83    32    78    1
    84    32    79    1
    85    34    80    1
    86    34    81    1
@<TRIPOS>SUBSTRUCTURE
     1 RES1        1 GROUP             0 ****  ****    0  
@<TRIPOS>MOLECULE
5.97569387195
    81    86     1     0     0
SMALL
USER_CHARGES
****
Generated from the CSD

@<TRIPOS>ATOM
     1 C       53.6224  49.3023  -4.4391   C.3       1 RES1   0.0000
     2 C       52.6817  49.2144  -3.2147   C.3       1 RES1   0.0000
     3 C       53.2344  48.2132  -2.1633   C.3       1 RES1   0.0000
     4 C       52.1556  47.1136  -2.0982   C.3       1 RES1   0.0000
     5 C       52.1165  46.2059  -0.8456   C.3       1 RES1   1.8771
     6 C       53.4467  45.5461  -0.6202   C.2       1 RES1   1.0580
     7 C       53.5748  44.2993  -0.1512   C.2       1 RES1   3.6968
     8 C       52.3930  43.4776   0.2015   C.2       1 RES1  23.9116
     9 C       52.5796  42.2436   0.6958   C.2       1 RES1  32.0357
    10 C       51.3583  41.4179   0.9995   C.ar      1 RES1  34.0174
    11 C       50.1090  41.7629   0.5308   C.ar      1 RES1  33.7070
    12 C       49.2447  40.7963   1.0356   C.ar      1 RES1  34.3025
    13 N       49.9701  39.9092   1.7538   N.ar      1 RES1  34.0079
    14 N       51.2530  40.2844   1.7151   N.ar      1 RES1  33.1513
    15 C       52.3106  39.6525   2.2912   C.ar      1 RES1  34.9623
    16 C       52.4136  38.2622   2.2252   C.ar      1 RES1  37.4094
    17 C       53.5024  37.6146   2.8110   C.ar      1 RES1  12.8020
    18 C       54.4857  38.3575   3.4663   C.ar      1 RES1   6.8524
    19 C       54.3803  39.7476   3.5359   C.ar      1 RES1   5.3460
    20 C       53.2925  40.3952   2.9484   C.ar      1 RES1   8.8597
    21 C       49.9134  42.9826  -0.3488   C.3       1 RES1  29.3447
    22 C       50.9884  44.0476   0.0248   C.3       1 RES1  25.7089
    23 C       51.0423  45.1136  -1.1051   C.3       1 RES1  12.9128
    24 C       49.6576  45.6924  -1.5541   C.3       1 RES1   5.1471
    25 C       49.7013  46.8665  -2.5812   C.3       1 RES1   0.0000
    26 C       50.8399  47.8892  -2.3155   C.3       1 RES1   0.0000
    27 C       51.2430  48.7187  -3.5633   C.3       1 RES1   0.0000
    28 C       50.2150  49.7622  -3.9406   C.2       1 RES1   0.0000
    29 O       49.1258  49.7647  -3.3906   O.2       1 RES1   0.0000
    30 C       50.5171  50.7741  -5.0154   C.3       1 RES1   0.0000
    31 O       50.5209  52.0888  -4.4468   O.3       1 RES1   0.0000
    32 O       51.3040  47.8205  -4.6816   O.3       1 RES1   0.0000
    33 C       50.4617  48.8667  -1.1610   C.3       1 RES1   0.0000
    34 O       48.4493  45.5552  -0.7840   O.3       1 RES1   0.6733
    35 C       50.6115  44.6554   1.3992   C.3       1 RES1  13.2185
    36 C       54.9664  43.7397   0.0213   C.3       1 RES1   5.2474
    37 H1      53.7813  48.3079  -4.8826   H         1 RES1   0.0000
    38 H2      54.5955  49.7029  -4.1171   H         1 RES1   0.0000
    39 H3      53.1966  49.9773  -5.1959   H         1 RES1   0.0000
    40 H4      52.6654  50.2059  -2.7415   H         1 RES1   0.0000
    41 H5      53.3420  48.6985  -1.1816   H         1 RES1   0.0000
    42 H6      54.2083  47.8032  -2.4697   H         1 RES1   0.0000
    43 H7      52.3300  46.4647  -2.9702   H         1 RES1   0.0000
    44 H8      51.9079  46.8196   0.0407   H         1 RES1   0.0000
    45 H9      54.3398  46.1258  -0.8426   H         1 RES1   0.0000
    46 H10     53.5531  41.7991   0.8872   H         1 RES1   0.0000
    47 H11     48.1729  40.7596   0.8786   H         1 RES1   0.0000
    48 H12     51.6477  37.6853   1.7188   H         1 RES1   0.0000
    49 H13     53.5841  36.5347   2.7572   H         1 RES1   0.0000
    50 H14     55.3317  37.8544   3.9216   H         1 RES1   0.0000
    51 H15     55.1437  40.3243   4.0462   H         1 RES1   0.0000
    52 H16     53.2096  41.4749   3.0017   H         1 RES1   0.0000
    53 H17     50.0425  42.6629  -1.3935   H         1 RES1   0.0000
    54 H18     48.8880  43.3460  -0.2028   H         1 RES1   0.0000
    55 H19     51.3946  44.5596  -1.9888   H         1 RES1   0.0000
    56 H20     49.7850  46.3753  -0.7134   H         1 RES1   0.0000
    57 H21     49.8511  46.3817  -3.5561   H         1 RES1   0.0000
    58 H22     48.7321  47.3872  -2.6056   H         1 RES1   0.0000
    59 H23     49.7959  50.7223  -5.8429   H         1 RES1   0.0000
    60 H24     51.5199  50.5664  -5.4189   H         1 RES1   0.0000
    61 H25     51.1384  52.1401  -3.7259   H         1 RES1   0.0000
    62 H26     50.8158  48.1516  -5.4264   H         1 RES1   0.0000
    63 H27     51.2381  49.6251  -1.0029   H         1 RES1   0.0000
    64 H28     50.2932  48.3815  -0.1921   H         1 RES1   0.0000
    65 H29     49.5296  49.3837  -1.4321   H         1 RES1   0.0000
    66 H30     48.0677  46.4116  -0.6269   H         1 RES1   0.0000
    67 H31     51.3783  45.3695   1.7306   H         1 RES1   0.0000
    68 H32     49.6395  45.1661   1.3574   H         1 RES1   0.0000
    69 H33     50.5492  43.8525   2.1484   H         1 RES1   0.0000
    70 H34     55.0725  42.8189  -0.5715   H         1 RES1   0.0000
    71 H35     55.7390  44.4474  -0.3131   H         1 RES1   0.0000
    72 H36     55.1468  43.5161   1.0833   H         1 RES1   0.0000
    73 ****    49.6086  39.1090   2.2323   Du        1 RES1  28.6877
    74 ****    48.9161  49.0789  -2.6937   Du        1 RES1   0.0000
    75 ****    48.4430  50.4526  -3.6367   Du        1 RES1   0.0000
    76 ****    49.6041  52.3039  -4.1101   Du        1 RES1   0.0000
    77 ****    50.7813  52.7503  -5.1501   Du        1 RES1   0.0000
    78 ****    50.9205  46.9380  -4.4094   Du        1 RES1   0.0000
    79 ****    52.2602  47.7003  -4.9487   Du        1 RES1   0.0000
    80 ****    48.6613  45.1207   0.0913   Du        1 RES1   7.2196
    81 ****    47.7972  44.9888  -1.2880   Du        1 RES1   0.5749
@<TRIPOS>BOND
     1     1     2    1
     2     2     3    1
     3     3     4    1
     4     4     5    1
     5     5     6    1
     6     6     7    2
     7     7     8    1
     8     8     9    2
     9     9    10    1
    10    10    11   ar
    11    11    12   ar
    12    12    13   ar
    13    13    14   ar
    14    10    14   ar
    15    14    15    1
    16    15    16   ar
    17    16    17   ar
    18    17    18   ar
    19    18    19   ar
    20    19    20   ar
    21    15    20   ar
    22    11    21    1
    23    21    22    1
    24     8    22    1
    25    22    23    1
    26     5    23    1
    27    23    24    1
    28    24    25    1
    29    25    26    1
    30     4    26    1
    31    26    27    1
    32     2    27    1
    33    27    28    1
    34    28    29    2
    35    28    30    1
    36    30    31    1
    37    27    32    1
    38    26    33    1
    39    24    34    1
    40    22    35    1
    41     7    36    1
    42     1    37    1
    43     1    38    1
    44     1    39    1
    45     2    40    1
    46     3    41    1
    47     3    42    1
    48     4    43    1
    49     5    44    1
    50     6    45    1
    51     9    46    1
    52    12    47    1
    53    16    48    1
    54    17    49    1
    55    18    50    1
    56    19    51    1
    57    20    52    1
    58    21    53    1
    59    21    54    1
    60    23    55    1
    61    24    56    1
    62    25    57    1
    63    25    58    1
    64    30    59    1
    65    30    60    1
    66    31    61    1
    67    32    62    1
    68    33    63    1
    69    33    64    1
    70    33    65    1
    71    34    66    1
    72    35    67    1
    73    35    68    1
    74    35    69    1
    75    36    70    1
    76    36    71    1
    77    36    72    1
    78    13    73    1
    79    29    74    1
    80    29    75    1
    81    31    76    1
    82    31    77    1
    83    32    78    1
    84    32    79    1
    85    34    80    1
    86    34    81    1
@<TRIPOS>SUBSTRUCTURE
     1 RES1        1 GROUP             0 ****  ****    0  
@<TRIPOS>MOLECULE
5.92253436786
    81    86     1     0     0
SMALL
USER_CHARGES
****
Generated from the CSD

@<TRIPOS>ATOM
     1 C       52.6450  31.7669   3.7183   C.3       1 RES1   0.0000
     2 C       53.5307  32.9203   4.2450   C.3       1 RES1   0.0000
     3 C       52.7489  34.2628   4.2438   C.3       1 RES1   0.0000
     4 C       53.5335  35.1456   3.2529   C.3       1 RES1   1.2712
     5 C       53.3477  36.6794   3.3402   C.3       1 RES1   9.4145
     6 C       51.8972  37.0509   3.2239   C.2       1 RES1  29.6693
     7 C       51.4724  38.1529   2.5946   C.2       1 RES1  39.4426
     8 C       52.4218  39.1077   1.9754   C.2       1 RES1  37.4094
     9 C       51.9433  40.2126   1.3823   C.2       1 RES1  33.0267
    10 C       52.9303  41.1377   0.7224   C.ar      1 RES1  15.5822
    11 C       54.2284  40.7546   0.4624   C.ar      1 RES1  13.1348
    12 C       54.8341  41.8671  -0.1134   C.ar      1 RES1   7.2356
    13 N       53.9138  42.8539  -0.2047   N.ar      1 RES1  11.6816
    14 N       52.7579  42.3993   0.2905   N.ar      1 RES1  15.3952
    15 C       51.5767  43.0695   0.3646   C.ar      1 RES1  31.8822
    16 C       51.2025  43.9402  -0.6600   C.ar      1 RES1  25.7089
    17 C       49.9874  44.6229  -0.5865   C.ar      1 RES1  20.1289
    18 C       49.1488  44.4377   0.5138   C.ar      1 RES1  13.2295
    19 C       49.5252  43.5701   1.5404   C.ar      1 RES1  21.6859
    20 C       50.7394  42.8860   1.4659   C.ar      1 RES1  26.6266
    21 C       54.7146  39.3590   0.8021   C.3       1 RES1   9.0480
    22 C       53.9229  38.8400   2.0404   C.3       1 RES1  10.9009
    23 C       54.1314  37.3038   2.1527   C.3       1 RES1   9.8533
    24 C       55.6169  36.8153   2.0578   C.3       1 RES1   0.4987
    25 C       55.8605  35.2953   2.3145   C.3       1 RES1   0.0000
    26 C       54.9976  34.7081   3.4648   C.3       1 RES1   0.0000
    27 C       54.8113  33.1695   3.3878   C.3       1 RES1   0.0000
    28 C       56.0608  32.4005   3.7555   C.2       1 RES1   0.0000
    29 O       57.0997  32.6098   3.1508   O.2       1 RES1   0.0000
    30 C       56.0192  31.3544   4.8393   C.3       1 RES1   0.0000
    31 O       57.0998  31.5707   5.7543   O.3       1 RES1   0.0000
    32 O       54.5438  32.8318   2.0183   O.3       1 RES1   0.0000
    33 C       55.5918  35.0747   4.8591   C.3       1 RES1   0.0000
    34 O       56.7530  37.6849   2.2141   O.3       1 RES1   0.0000
    35 C       54.4263  39.6021   3.2919   C.3       1 RES1   5.3460
    36 C       49.9865  38.4130   2.5324   C.3       1 RES1  38.2503
    37 H1      52.2558  31.9991   2.7157   H         1 RES1   0.0000
    38 H2      51.7940  31.6260   4.4016   H         1 RES1   0.0000
    39 H3      53.2239  30.8325   3.6794   H         1 RES1   0.0000
    40 H4      53.7805  32.6911   5.2902   H         1 RES1   0.0000
    41 H5      52.7548  34.7183   5.2455   H         1 RES1   0.0000
    42 H6      51.7070  34.1225   3.9193   H         1 RES1   0.0000
    43 H7      53.2141  34.8316   2.2473   H         1 RES1   0.0000
    44 H8      53.6918  37.0312   4.3218   H         1 RES1   0.0000
    45 H9      51.1696  36.3889   3.6880   H         1 RES1   0.0000
    46 H10     50.8907  40.4820   1.3429   H         1 RES1   0.0000
    47 H11     55.8670  41.9315  -0.4354   H         1 RES1   0.0000
    48 H12     51.8559  44.0861  -1.5129   H         1 RES1   0.0000
    49 H13     49.6951  45.2971  -1.3839   H         1 RES1   0.0000
    50 H14     48.2047  44.9682   0.5711   H         1 RES1   0.0000
    51 H15     48.8741  43.4275   2.3957   H         1 RES1   0.0000
    52 H16     51.0328  42.2118   2.2627   H         1 RES1   0.0000
    53 H17     54.5188  38.7176  -0.0699   H         1 RES1   0.0000
    54 H18     55.7963  39.4101   0.9815   H         1 RES1   0.0000
    55 H19     53.6621  36.8958   1.2443   H         1 RES1   0.0000
    56 H20     55.6514  37.0379   3.1248   H         1 RES1   0.0000
    57 H21     55.6048  34.8053   1.3645   H         1 RES1   0.0000
    58 H22     56.9262  35.1096   2.5170   H         1 RES1   0.0000
    59 H23     56.0689  30.3361   4.4294   H         1 RES1   0.0000
    60 H24     55.0712  31.4585   5.3891   H         1 RES1   0.0000
    61 H25     57.4767  32.4344   5.6292   H         1 RES1   0.0000
    62 H26     54.9459  33.4491   1.4183   H         1 RES1   0.0000
    63 H27     55.0180  34.6192   5.6753   H         1 RES1   0.0000
    64 H28     55.6341  36.1508   5.0659   H         1 RES1   0.0000
    65 H29     56.6218  34.6929   4.9113   H         1 RES1   0.0000
    66 H30     57.0538  37.9795   1.3617   H         1 RES1   0.0000
    67 H31     53.8503  39.3103   4.1812   H         1 RES1   0.0000
    68 H32     55.4923  39.4092   3.4755   H         1 RES1   0.0000
    69 H33     54.2909  40.6831   3.1398   H         1 RES1   0.0000
    70 H34     49.6670  38.4921   1.4826   H         1 RES1   0.0000
    71 H35     49.4072  37.6044   3.0016   H         1 RES1   0.0000
    72 H36     49.7520  39.3496   3.0597   H         1 RES1   0.0000
    73 ****    54.0710  43.7679  -0.5788   Du        1 RES1   5.3794
    74 ****    57.1225  33.2873   2.4156   Du        1 RES1   0.0000
    75 ****    57.9283  32.1038   3.3903   Du        1 RES1   0.0000
    76 ****    57.8051  30.8789   5.5993   Du        1 RES1   0.0000
    77 ****    56.7578  31.4939   6.6908   Du        1 RES1   0.0000
    78 ****    53.5547  32.8347   1.8712   Du        1 RES1   0.0000
    79 ****    54.9056  31.9180   1.8334   Du        1 RES1   0.0000
    80 ****    57.4901  37.1886   2.6727   Du        1 RES1   0.0000
    81 ****    56.4912  38.4771   2.7654   Du        1 RES1   0.0000
@<TRIPOS>BOND
     1     1     2    1
     2     2     3    1
     3     3     4    1
     4     4     5    1
     5     5     6    1
     6     6     7    2
     7     7     8    1
     8     8     9    2
     9     9    10    1
    10    10    11   ar
    11    11    12   ar
    12    12    13   ar
    13    13    14   ar
    14    10    14   ar
    15    14    15    1
    16    15    16   ar
    17    16    17   ar
    18    17    18   ar
    19    18    19   ar
    20    19    20   ar
    21    15    20   ar
    22    11    21    1
    23    21    22    1
    24     8    22    1
    25    22    23    1
    26     5    23    1
    27    23    24    1
    28    24    25    1
    29    25    26    1
    30     4    26    1
    31    26    27    1
    32     2    27    1
    33    27    28    1
    34    28    29    2
    35    28    30    1
    36    30    31    1
    37    27    32    1
    38    26    33    1
    39    24    34    1
    40    22    35    1
    41     7    36    1
    42     1    37    1
    43     1    38    1
    44     1    39    1
    45     2    40    1
    46     3    41    1
    47     3    42    1
    48     4    43    1
    49     5    44    1
    50     6    45    1
    51     9    46    1
    52    12    47    1
    53    16    48    1
    54    17    49    1
    55    18    50    1
    56    19    51    1
    57    20    52    1
    58    21    53    1
    59    21    54    1
    60    23    55    1
    61    24    56    1
    62    25    57    1
    63    25    58    1
    64    30    59    1
    65    30    60    1
    66    31    61    1
    67    32    62    1
    68    33    63    1
    69    33    64    1
    70    33    65    1
    71    34    66    1
    72    35    67    1
    73    35    68    1
    74    35    69    1
    75    36    70    1
    76    36    71    1
    77    36    72    1
    78    13    73    1
    79    29    74    1
    80    29    75    1
    81    31    76    1
    82    31    77    1
    83    32    78    1
    84    32    79    1
    85    34    80    1
    86    34    81    1
@<TRIPOS>SUBSTRUCTURE
     1 RES1        1 GROUP             0 ****  ****    0  
@<TRIPOS>MOLECULE
5.66896249401
    81    86     1     0     0
SMALL
USER_CHARGES
****
Generated from the CSD

@<TRIPOS>ATOM
     1 C       46.3863  49.4749   0.4894   C.3       1 RES1   0.0000
     2 C       46.9009  48.6021  -0.6790   C.3       1 RES1   0.0000
     3 C       47.0679  47.1234  -0.2329   C.3       1 RES1   0.0000
     4 C       48.5788  46.8592  -0.3895   C.3       1 RES1   0.0000
     5 C       49.0534  45.3901  -0.4955   C.3       1 RES1   7.5625
     6 C       48.5747  44.5862   0.6793   C.2       1 RES1   8.4082
     7 C       49.2990  43.6127   1.2435   C.2       1 RES1  25.1598
     8 C       50.6378  43.2425   0.7268   C.2       1 RES1  33.5464
     9 C       51.3090  42.2382   1.3121   C.2       1 RES1  34.0174
    10 C       52.6853  41.9186   0.7934   C.ar      1 RES1  32.0357
    11 C       53.3706  42.7795  -0.0365   C.ar      1 RES1  12.4780
    12 C       54.5706  42.1374  -0.3258   C.ar      1 RES1  10.1659
    13 N       54.5906  40.9552   0.3307   N.ar      1 RES1  10.1744
    14 N       53.4504  40.8361   1.0191   N.ar      1 RES1  14.8675
    15 C       53.0836  39.8057   1.8276   C.ar      1 RES1  14.3800
    16 C       54.0117  39.2415   2.7040   C.ar      1 RES1  10.4368
    17 C       53.6331  38.1884   3.5379   C.ar      1 RES1  12.8020
    18 C       52.3274  37.6971   3.4921   C.ar      1 RES1  30.9590
    19 C       51.4005  38.2588   2.6125   C.ar      1 RES1  39.4426
    20 C       51.7787  39.3132   1.7799   C.ar      1 RES1  36.6405
    21 C       52.7765  44.1151  -0.4399   C.3       1 RES1   7.6976
    22 C       51.2237  43.9838  -0.4717   C.3       1 RES1  25.7089
    23 C       50.6070  45.4103  -0.5012   C.3       1 RES1   9.1844
    24 C       51.2160  46.3873  -1.5637   C.3       1 RES1   0.0000
    25 C       50.5133  47.7732  -1.7086   C.3       1 RES1   0.0000
    26 C       48.9640  47.7021  -1.6228   C.3       1 RES1   0.0000
    27 C       48.2945  49.0445  -1.2259   C.3       1 RES1   0.0000
    28 C       48.3173  50.0711  -2.3365   C.2       1 RES1   0.0000
    29 O       49.3820  50.4034  -2.8312   O.2       1 RES1   0.0000
    30 C       47.0368  50.7094  -2.8090   C.3       1 RES1   0.0000
    31 O       47.3301  51.6716  -3.8287   O.3       1 RES1   0.0000
    32 O       49.0672  49.6174  -0.1600   O.3       1 RES1   0.0000
    33 C       48.3468  47.2092  -2.9673   C.3       1 RES1   0.0000
    34 O       52.0206  45.9539  -2.6756   O.3       1 RES1   0.0000
    35 C       50.8337  43.1409  -1.7118   C.3       1 RES1  15.7100
    36 C       48.7154  42.8828   2.4293   C.3       1 RES1  16.7876
    37 H1      47.0538  49.3957   1.3605   H         1 RES1   0.0000
    38 H2      45.3836  49.1287   0.7825   H         1 RES1   0.0000
    39 H3      46.3177  50.5266   0.1747   H         1 RES1   0.0000
    40 H4      46.1329  48.6193  -1.4645   H         1 RES1   0.0000
    41 H5      46.4946  46.4511  -0.8889   H         1 RES1   0.0000
    42 H6      46.7398  46.9762   0.8069   H         1 RES1   0.0000
    43 H7      49.0577  47.2969   0.4998   H         1 RES1   0.0000
    44 H8      48.6207  44.9332  -1.3953   H         1 RES1   0.0000
    45 H9      47.5854  44.8099   1.0723   H         1 RES1   0.0000
    46 H10     50.9272  41.6433   2.1381   H         1 RES1   0.0000
    47 H11     55.3564  42.5201  -0.9669   H         1 RES1   0.0000
    48 H12     55.0268  39.6214   2.7368   H         1 RES1   0.0000
    49 H13     54.3532  37.7519   4.2211   H         1 RES1   0.0000
    50 H14     52.0332  36.8788   4.1400   H         1 RES1   0.0000
    51 H15     50.3867  37.8760   2.5761   H         1 RES1   0.0000
    52 H16     51.0596  39.7503   1.0963   H         1 RES1   0.0000
    53 H17     53.0797  44.8553   0.3153   H         1 RES1   0.0000
    54 H18     53.1984  44.3944  -1.4140   H         1 RES1   0.0000
    55 H19     50.8984  45.8555   0.4625   H         1 RES1   0.0000
    56 H20     50.5108  45.9175  -2.2504   H         1 RES1   0.0000
    57 H21     50.9087  48.3768  -0.8796   H         1 RES1   0.0000
    58 H22     50.8117  48.2544  -2.6523   H         1 RES1   0.0000
    59 H23     46.4875  51.1867  -1.9856   H         1 RES1   0.0000
    60 H24     46.3956  49.9268  -3.2428   H         1 RES1   0.0000
    61 H25     48.1639  51.4778  -4.2420   H         1 RES1   0.0000
    62 H26     49.9157  49.9190  -0.4629   H         1 RES1   0.0000
    63 H27     47.2506  47.2069  -2.9320   H         1 RES1   0.0000
    64 H28     48.6545  46.1997  -3.2650   H         1 RES1   0.0000
    65 H29     48.6612  47.8943  -3.7680   H         1 RES1   0.0000
    66 H30     52.5403  46.6807  -3.0006   H         1 RES1   0.0000
    67 H31     49.7482  42.9712  -1.7394   H         1 RES1   0.0000
    68 H32     51.1438  43.6336  -2.6436   H         1 RES1   0.0000
    69 H33     51.3290  42.1603  -1.6568   H         1 RES1   0.0000
    70 H34     49.3904  42.9779   3.2928   H         1 RES1   0.0000
    71 H35     47.7354  43.2882   2.7205   H         1 RES1   0.0000
    72 H36     48.5833  41.8191   2.1813   H         1 RES1   0.0000
    73 ****    55.3318  40.2844   0.3057   Du        1 RES1   4.4438
    74 ****    50.2346  49.9974  -2.5021   Du        1 RES1   0.0000
    75 ****    49.4021  51.0817  -3.5657   Du        1 RES1   0.0000
    76 ****    47.3704  52.5828  -3.4188   Du        1 RES1   0.0000
    77 ****    46.6076  51.6487  -4.5198   Du        1 RES1   0.0000
    78 ****    49.2035  48.9257   0.5492   Du        1 RES1   0.0000
    79 ****    48.5656  50.3931   0.2229   Du        1 RES1   0.0000
    80 ****    51.4249  45.6193  -3.4058   Du        1 RES1   0.0000
    81 ****    52.6288  45.2180  -2.3781   Du        1 RES1   0.0000
@<TRIPOS>BOND
     1     1     2    1
     2     2     3    1
     3     3     4    1
     4     4     5    1
     5     5     6    1
     6     6     7    2
     7     7     8    1
     8     8     9    2
     9     9    10    1
    10    10    11   ar
    11    11    12   ar
    12    12    13   ar
    13    13    14   ar
    14    10    14   ar
    15    14    15    1
    16    15    16   ar
    17    16    17   ar
    18    17    18   ar
    19    18    19   ar
    20    19    20   ar
    21    15    20   ar
    22    11    21    1
    23    21    22    1
    24     8    22    1
    25    22    23    1
    26     5    23    1
    27    23    24    1
    28    24    25    1
    29    25    26    1
    30     4    26    1
    31    26    27    1
    32     2    27    1
    33    27    28    1
    34    28    29    2
    35    28    30    1
    36    30    31    1
    37    27    32    1
    38    26    33    1
    39    24    34    1
    40    22    35    1
    41     7    36    1
    42     1    37    1
    43     1    38    1
    44     1    39    1
    45     2    40    1
    46     3    41    1
    47     3    42    1
    48     4    43    1
    49     5    44    1
    50     6    45    1
    51     9    46    1
    52    12    47    1
    53    16    48    1
    54    17    49    1
    55    18    50    1
    56    19    51    1
    57    20    52    1
    58    21    53    1
    59    21    54    1
    60    23    55    1
    61    24    56    1
    62    25    57    1
    63    25    58    1
    64    30    59    1
    65    30    60    1
    66    31    61    1
    67    32    62    1
    68    33    63    1
    69    33    64    1
    70    33    65    1
    71    34    66    1
    72    35    67    1
    73    35    68    1
    74    35    69    1
    75    36    70    1
    76    36    71    1
    77    36    72    1
    78    13    73    1
    79    29    74    1
    80    29    75    1
    81    31    76    1
    82    31    77    1
    83    32    78    1
    84    32    79    1
    85    34    80    1
    86    34    81    1
@<TRIPOS>SUBSTRUCTURE
     1 RES1        1 GROUP             0 ****  ****    0  
@<TRIPOS>MOLECULE
5.51063767903
    81    86     1     0     0
SMALL
USER_CHARGES
****
Generated from the CSD

@<TRIPOS>ATOM
     1 C       53.1232  31.2995   3.9891   C.3       1 RES1   0.0000
     2 C       54.0992  32.4468   4.3401   C.3       1 RES1   0.0000
     3 C       53.3541  33.8087   4.3977   C.3       1 RES1   0.0000
     4 C       54.0080  34.6349   3.2722   C.3       1 RES1   0.0000
     5 C       53.8692  36.1752   3.3255   C.3       1 RES1   4.4633
     6 C       52.4252  36.5808   3.4016   C.2       1 RES1  22.3821
     7 C       51.9386  37.6708   2.7967   C.2       1 RES1  36.3641
     8 C       52.8102  38.5776   2.0128   C.2       1 RES1  16.8438
     9 C       52.2756  39.6733   1.4512   C.2       1 RES1  32.8479
    10 C       53.1779  40.5479   0.6228   C.ar      1 RES1  15.5822
    11 C       54.4173  40.1216   0.1966   C.ar      1 RES1   8.4881
    12 C       54.9582  41.1966  -0.5019   C.ar      1 RES1   7.1740
    13 N       54.0555  42.2036  -0.5000   N.ar      1 RES1  13.1009
    14 N       52.9726  41.7977   0.1712   N.ar      1 RES1  15.3952
    15 C       51.8286  42.5012   0.3859   C.ar      1 RES1  31.8822
    16 C       50.8000  41.9456   1.1482   C.ar      1 RES1  34.0174
    17 C       49.6288  42.6704   1.3736   C.ar      1 RES1  33.5144
    18 C       49.4850  43.9492   0.8330   C.ar      1 RES1  19.2697
    19 C       50.5122  44.5031   0.0671   C.ar      1 RES1  20.1289
    20 C       51.6841  43.7789  -0.1566   C.ar      1 RES1  23.8498
    21 C       54.9171  38.7263   0.5177   C.3       1 RES1   4.1754
    22 C       54.2991  38.2726   1.8748   C.3       1 RES1   7.3449
    23 C       54.4888  36.7363   2.0157   C.3       1 RES1   4.9924
    24 C       55.9348  36.2054   1.7303   C.3       1 RES1   0.0000
    25 C       56.1801  34.6895   2.0085   C.3       1 RES1   0.0000
    26 C       55.4777  34.1663   3.2913   C.3       1 RES1   0.0000
    27 C       55.2496  32.6315   3.3011   C.3       1 RES1   0.0000
    28 C       56.5221  31.8430   3.5176   C.2       1 RES1   0.0000
    29 O       57.0993  31.9090   4.5905   O.2       1 RES1   0.0000
    30 C       57.0974  31.0062   2.4043   C.3       1 RES1   0.0000
    31 O       57.0993  29.6279   2.7942   O.3       1 RES1   0.0000
    32 O       54.7825  32.2529   1.9973   O.3       1 RES1   0.0000
    33 C       56.2722  34.5660   4.5721   C.3       1 RES1   0.0000
    34 O       57.0999  37.0495   1.6903   O.3       1 RES1   0.0000
    35 C       54.9919  39.0647   3.0119   C.3       1 RES1   4.0548
    36 C       50.4649  37.9679   2.9356   C.3       1 RES1  40.8944
    37 H1      52.6001  31.5065   3.0435   H         1 RES1   0.0000
    38 H2      52.3755  31.2054   4.7911   H         1 RES1   0.0000
    39 H3      53.6706  30.3493   3.9048   H         1 RES1   0.0000
    40 H4      54.4906  32.2481   5.3474   H         1 RES1   0.0000
    41 H5      53.5124  34.2989   5.3700   H         1 RES1   0.0000
    42 H6      52.2738  33.6848   4.2297   H         1 RES1   0.0000
    43 H7      53.5419  34.2942   2.3349   H         1 RES1   0.0000
    44 H8      54.3572  36.5521   4.2341   H         1 RES1   0.0000
    45 H9      51.7573  35.9551   3.9894   H         1 RES1   0.0000
    46 H10     51.2341  39.9689   1.5509   H         1 RES1   0.0000
    47 H11     55.9358  41.2220  -0.9692   H         1 RES1   0.0000
    48 H12     50.9109  40.9508   1.5652   H         1 RES1   0.0000
    49 H13     48.8307  42.2401   1.9683   H         1 RES1   0.0000
    50 H14     48.5750  44.5125   1.0080   H         1 RES1   0.0000
    51 H15     50.3996  45.4959  -0.3538   H         1 RES1   0.0000
    52 H16     52.4827  44.2080  -0.7512   H         1 RES1   0.0000
    53 H17     54.5854  38.0600  -0.2923   H         1 RES1   0.0000
    54 H18     56.0141  38.7550   0.5399   H         1 RES1   0.0000
    55 H19     53.8862  36.3091   1.1995   H         1 RES1   0.0000
    56 H20     56.1258  36.4645   2.7723   H         1 RES1   0.0000
    57 H21     55.7812  34.1733   1.1240   H         1 RES1   0.0000
    58 H22     57.2596  34.4828   2.0650   H         1 RES1   0.0000
    59 H23     58.1141  31.3242   2.1347   H         1 RES1   0.0000
    60 H24     56.4554  31.1162   1.5170   H         1 RES1   0.0000
    61 H25     56.7114  29.0874   2.1153   H         1 RES1   0.0000
    62 H26     53.8902  32.5416   1.8454   H         1 RES1   0.0000
    63 H27     55.8112  34.1550   5.4784   H         1 RES1   0.0000
    64 H28     56.3665  35.6472   4.7291   H         1 RES1   0.0000
    65 H29     57.2909  34.1590   4.4926   H         1 RES1   0.0000
    66 H30     57.2896  37.2956   0.7918   H         1 RES1   0.0000
    67 H31     54.5425  38.8198   3.9845   H         1 RES1   0.0000
    68 H32     56.0688  38.8501   3.0499   H         1 RES1   0.0000
    69 H33     54.8592  40.1428   2.8388   H         1 RES1   0.0000
    70 H34     50.0008  38.0185   1.9394   H         1 RES1   0.0000
    71 H35     49.9413  37.1921   3.5131   H         1 RES1   0.0000
    72 H36     50.3279  38.9284   3.4542   H         1 RES1   0.0000
    73 ****    54.1773  43.0993  -0.9277   Du        1 RES1   8.3481
    74 ****    56.7308  32.4825   5.3221   Du        1 RES1   0.0000
    75 ****    57.9409  31.3895   4.7383   Du        1 RES1   0.0000
    76 ****    56.5724  29.5243   3.6378   Du        1 RES1   0.0000
    77 ****    58.0416  29.3322   2.9514   Du        1 RES1   0.0000
    78 ****    54.8188  31.2568   1.9169   Du        1 RES1   0.0000
    79 ****    55.3781  32.6649   1.3077   Du        1 RES1   0.0000
    80 ****    57.8812  36.5549   2.0709   Du        1 RES1   0.0000
    81 ****    56.9314  37.8734   2.2314   Du        1 RES1   0.0000
@<TRIPOS>BOND
     1     1     2    1
     2     2     3    1
     3     3     4    1
     4     4     5    1
     5     5     6    1
     6     6     7    2
     7     7     8    1
     8     8     9    2
     9     9    10    1
    10    10    11   ar
    11    11    12   ar
    12    12    13   ar
    13    13    14   ar
    14    10    14   ar
    15    14    15    1
    16    15    16   ar
    17    16    17   ar
    18    17    18   ar
    19    18    19   ar
    20    19    20   ar
    21    15    20   ar
    22    11    21    1
    23    21    22    1
    24     8    22    1
    25    22    23    1
    26     5    23    1
    27    23    24    1
    28    24    25    1
    29    25    26    1
    30     4    26    1
    31    26    27    1
    32     2    27    1
    33    27    28    1
    34    28    29    2
    35    28    30    1
    36    30    31    1
    37    27    32    1
    38    26    33    1
    39    24    34    1
    40    22    35    1
    41     7    36    1
    42     1    37    1
    43     1    38    1
    44     1    39    1
    45     2    40    1
    46     3    41    1
    47     3    42    1
    48     4    43    1
    49     5    44    1
    50     6    45    1
    51     9    46    1
    52    12    47    1
    53    16    48    1
    54    17    49    1
    55    18    50    1
    56    19    51    1
    57    20    52    1
    58    21    53    1
    59    21    54    1
    60    23    55    1
    61    24    56    1
    62    25    57    1
    63    25    58    1
    64    30    59    1
    65    30    60    1
    66    31    61    1
    67    32    62    1
    68    33    63    1
    69    33    64    1
    70    33    65    1
    71    34    66    1
    72    35    67    1
    73    35    68    1
    74    35    69    1
    75    36    70    1
    76    36    71    1
    77    36    72    1
    78    13    73    1
    79    29    74    1
    80    29    75    1
    81    31    76    1
    82    31    77    1
    83    32    78    1
    84    32    79    1
    85    34    80    1
    86    34    81    1
@<TRIPOS>SUBSTRUCTURE
     1 RES1        1 GROUP             0 ****  ****    0  
@<TRIPOS>MOLECULE
5.4486736855
    81    86     1     0     0
SMALL
USER_CHARGES
****
Generated from the CSD

@<TRIPOS>ATOM
     1 C       52.5478  31.9657   3.9708   C.3       1 RES1   0.0000
     2 C       53.4838  33.0918   4.4685   C.3       1 RES1   0.0000
     3 C       52.7789  34.4738   4.3862   C.3       1 RES1   0.0000
     4 C       53.6353  35.2653   3.3777   C.3       1 RES1   3.5720
     5 C       53.5338  36.8093   3.3911   C.3       1 RES1  11.2322
     6 C       52.1096  37.2542   3.2198   C.2       1 RES1  36.3641
     7 C       51.7626  38.3475   2.5305   C.2       1 RES1  37.4094
     8 C       52.7786  39.2190   1.8945   C.2       1 RES1  16.8438
     9 C       52.3771  40.3199   1.2399   C.2       1 RES1  32.8479
    10 C       53.4301  41.1577   0.5654   C.ar      1 RES1  14.8675
    11 C       54.7105  40.6923   0.3574   C.ar      1 RES1   9.4764
    12 C       55.3912  41.7419  -0.2516   C.ar      1 RES1   4.3083
    13 N       54.5302  42.7725  -0.4115   N.ar      1 RES1   8.6447
    14 N       53.3391  42.4056   0.0728   N.ar      1 RES1  14.8091
    15 C       52.1959  43.1424   0.0854   C.ar      1 RES1  31.8822
    16 C       52.2589  44.5309  -0.0409   C.ar      1 RES1  13.5613
    17 C       51.0851  45.2859  -0.0343   C.ar      1 RES1   9.0793
    18 C       49.8490  44.6524   0.1029   C.ar      1 RES1  20.1289
    19 C       49.7866  43.2641   0.2335   C.ar      1 RES1  29.3447
    20 C       50.9603  42.5090   0.2250   C.ar      1 RES1  33.5582
    21 C       55.1093  39.2892   0.7722   C.3       1 RES1   6.0714
    22 C       54.2603  38.8725   2.0112   C.3       1 RES1   8.3330
    23 C       54.3796  37.3340   2.1979   C.3       1 RES1   6.4727
    24 C       55.8371  36.7607   2.1644   C.3       1 RES1   0.0000
    25 C       55.9889  35.2432   2.4955   C.3       1 RES1   0.0000
    26 C       55.0670  34.7582   3.6478   C.3       1 RES1   0.0000
    27 C       54.7966  33.2303   3.6352   C.3       1 RES1   0.0000
    28 C       55.9918  32.4117   4.0701   C.2       1 RES1   0.0000
    29 O       57.0995  32.6802   3.6345   O.2       1 RES1   0.0000
    30 C       55.8151  31.2467   5.0092   C.3       1 RES1   0.0000
    31 O       57.1000  30.7537   5.4065   O.3       1 RES1   0.0000
    32 O       54.5435  32.8447   2.2756   O.3       1 RES1   0.0000
    33 C       55.6473  35.1559   5.0395   C.3       1 RES1   0.0000
    34 O       57.0162  37.5729   2.3115   O.3       1 RES1   0.0000
    35 C       54.7756  39.6630   3.2401   C.3       1 RES1   4.0548
    36 C       50.2955  38.6857   2.4174   C.3       1 RES1  39.4426
    37 H1      52.1963  32.1722   2.9488   H         1 RES1   0.0000
    38 H2      51.6740  31.9036   4.6370   H         1 RES1   0.0000
    39 H3      53.0741  31.0001   3.9893   H         1 RES1   0.0000
    40 H4      53.6953  32.8980   5.5291   H         1 RES1   0.0000
    41 H5      52.7863  34.9742   5.3662   H         1 RES1   0.0000
    42 H6      51.7389  34.3761   4.0408   H         1 RES1   0.0000
    43 H7      53.3230  34.9230   2.3792   H         1 RES1   0.0000
    44 H8      53.8735  37.1868   4.3646   H         1 RES1   0.0000
    45 H9      51.3351  36.6554   3.6938   H         1 RES1   0.0000
    46 H10     51.3426  40.6446   1.1604   H         1 RES1   0.0000
    47 H11     56.4336  41.7344  -0.5487   H         1 RES1   0.0000
    48 H12     53.2197  45.0228  -0.1442   H         1 RES1   0.0000
    49 H13     51.1336  46.3645  -0.1355   H         1 RES1   0.0000
    50 H14     48.9369  45.2390   0.1082   H         1 RES1   0.0000
    51 H15     48.8262  42.7724   0.3415   H         1 RES1   0.0000
    52 H16     50.9130  41.4305   0.3262   H         1 RES1   0.0000
    53 H17     54.8988  38.6198  -0.0749   H         1 RES1   0.0000
    54 H18     56.1876  39.2891   0.9778   H         1 RES1   0.0000
    55 H19     53.9100  36.9107   1.2966   H         1 RES1   0.0000
    56 H20     55.8585  37.0303   3.2209   H         1 RES1   0.0000
    57 H21     55.7289  34.7245   1.5621   H         1 RES1   0.0000
    58 H22     57.0373  35.0088   2.7343   H         1 RES1   0.0000
    59 H23     55.2242  30.4391   4.5553   H         1 RES1   0.0000
    60 H24     55.2845  31.5990   5.9070   H         1 RES1   0.0000
    61 H25     57.1154  29.8035   5.3847   H         1 RES1   0.0000
    62 H26     53.6779  33.1117   1.9890   H         1 RES1   0.0000
    63 H27     55.0295  34.7709   5.8599   H         1 RES1   0.0000
    64 H28     55.7449  36.2364   5.1987   H         1 RES1   0.0000
    65 H29     56.6527  34.7209   5.1361   H         1 RES1   0.0000
    66 H30     57.4646  37.3478   3.1191   H         1 RES1   0.0000
    67 H31     54.1629  39.4448   4.1260   H         1 RES1   0.0000
    68 H32     55.8243  39.4205   3.4603   H         1 RES1   0.0000
    69 H33     54.7047  40.7415   3.0360   H         1 RES1   0.0000
    70 H34     50.0062  38.7336   1.3570   H         1 RES1   0.0000
    71 H35     49.6607  37.9328   2.9069   H         1 RES1   0.0000
    72 H36     50.1013  39.6572   2.8957   H         1 RES1   0.0000
    73 ****    54.7474  43.6581  -0.8220   Du        1 RES1   5.2493
    74 ****    57.2142  33.4386   2.9929   Du        1 RES1   0.0000
    75 ****    57.8927  32.1418   3.9191   Du        1 RES1   0.0000
    76 ****    57.2980  31.0643   6.3362   Du        1 RES1   0.0000
    77 ****    57.7955  31.1080   4.7815   Du        1 RES1   0.0000
    78 ****    54.6165  31.8501   2.2021   Du        1 RES1   0.0000
    79 ****    55.2269  33.2736   1.6847   Du        1 RES1   0.0000
    80 ****    56.7537  38.5376   2.3356   Du        1 RES1   0.0000
    81 ****    57.6279  37.4132   1.5367   Du        1 RES1   0.0000
@<TRIPOS>BOND
     1     1     2    1
     2     2     3    1
     3     3     4    1
     4     4     5    1
     5     5     6    1
     6     6     7    2
     7     7     8    1
     8     8     9    2
     9     9    10    1
    10    10    11   ar
    11    11    12   ar
    12    12    13   ar
    13    13    14   ar
    14    10    14   ar
    15    14    15    1
    16    15    16   ar
    17    16    17   ar
    18    17    18   ar
    19    18    19   ar
    20    19    20   ar
    21    15    20   ar
    22    11    21    1
    23    21    22    1
    24     8    22    1
    25    22    23    1
    26     5    23    1
    27    23    24    1
    28    24    25    1
    29    25    26    1
    30     4    26    1
    31    26    27    1
    32     2    27    1
    33    27    28    1
    34    28    29    2
    35    28    30    1
    36    30    31    1
    37    27    32    1
    38    26    33    1
    39    24    34    1
    40    22    35    1
    41     7    36    1
    42     1    37    1
    43     1    38    1
    44     1    39    1
    45     2    40    1
    46     3    41    1
    47     3    42    1
    48     4    43    1
    49     5    44    1
    50     6    45    1
    51     9    46    1
    52    12    47    1
    53    16    48    1
    54    17    49    1
    55    18    50    1
    56    19    51    1
    57    20    52    1
    58    21    53    1
    59    21    54    1
    60    23    55    1
    61    24    56    1
    62    25    57    1
    63    25    58    1
    64    30    59    1
    65    30    60    1
    66    31    61    1
    67    32    62    1
    68    33    63    1
    69    33    64    1
    70    33    65    1
    71    34    66    1
    72    35    67    1
    73    35    68    1
    74    35    69    1
    75    36    70    1
    76    36    71    1
    77    36    72    1
    78    13    73    1
    79    29    74    1
    80    29    75    1
    81    31    76    1
    82    31    77    1
    83    32    78    1
    84    32    79    1
    85    34    80    1
    86    34    81    1
@<TRIPOS>SUBSTRUCTURE
     1 RES1        1 GROUP             0 ****  ****    0  
@<TRIPOS>MOLECULE
5.35487890327
    81    86     1     0     0
SMALL
USER_CHARGES
****
Generated from the CSD

@<TRIPOS>ATOM
     1 C       53.1139  31.4687   4.8275   C.3       1 RES1   0.0000
     2 C       54.2298  32.5389   4.8665   C.3       1 RES1   0.0000
     3 C       53.6241  33.9694   4.8729   C.3       1 RES1   0.0000
     4 C       54.1387  34.5938   3.5604   C.3       1 RES1   0.0000
     5 C       54.1421  36.1366   3.4410   C.3       1 RES1   4.4633
     6 C       52.7733  36.6973   3.7005   C.2       1 RES1  11.1910
     7 C       52.2824  37.7591   3.0506   C.2       1 RES1  37.4094
     8 C       53.0769  38.4779   2.0267   C.2       1 RES1  16.8438
     9 C       52.5470  39.5551   1.4264   C.2       1 RES1  32.8479
    10 C       53.3612  40.2340   0.3579   C.ar      1 RES1  14.2201
    11 C       54.4664  39.6358  -0.2080   C.ar      1 RES1   7.8400
    12 C       54.9657  40.5648  -1.1155   C.ar      1 RES1   5.6959
    13 N       54.1658  41.6550  -1.0931   N.ar      1 RES1  10.3256
    14 N       53.1866  41.4411  -0.2080   N.ar      1 RES1  15.5822
    15 C       52.1614  42.2800   0.1005   C.ar      1 RES1  31.8822
    16 C       51.0228  41.7859   0.7386   C.ar      1 RES1  34.0174
    17 C       49.9738  42.6483   1.0607   C.ar      1 RES1  33.7070
    18 C       50.0622  44.0040   0.7406   C.ar      1 RES1  25.7089
    19 C       51.1992  44.4972   0.0986   C.ar      1 RES1  20.1289
    20 C       52.2490  43.6351  -0.2217   C.ar      1 RES1  27.6668
    21 C       54.8948  38.2396   0.2004   C.3       1 RES1   1.8940
    22 C       54.4876  38.0051   1.6866   C.3       1 RES1   5.6779
    23 C       54.5683  36.4822   1.9873   C.3       1 RES1   4.9924
    24 C       55.8919  35.7746   1.5385   C.3       1 RES1   0.0000
    25 C       56.0529  34.2811   1.9618   C.3       1 RES1   0.0000
    26 C       55.5440  33.9786   3.3979   C.3       1 RES1   0.0000
    27 C       55.1921  32.4866   3.6384   C.3       1 RES1   0.0000
    28 C       56.4115  31.5976   3.7415   C.2       1 RES1   0.0000
    29 O       56.8551  31.3045   4.8397   O.2       1 RES1   0.0000
    30 C       57.0999  31.1028   2.4959   C.3       1 RES1   0.0000
    31 O       56.2957  30.0937   1.8739   O.3       1 RES1   0.0000
    32 O       54.4739  32.0181   2.4869   O.3       1 RES1   0.0000
    33 C       56.5813  34.4311   4.4706   C.3       1 RES1   0.0000
    34 O       57.0992  36.4823   1.2023   O.3       1 RES1   0.0000
    35 C       55.4331  38.8404   2.5859   C.3       1 RES1   2.5625
    36 C       50.8862  38.2226   3.3902   C.3       1 RES1  40.8944
    37 H1      52.4529  31.6241   3.9617   H         1 RES1   0.0000
    38 H2      52.5127  31.5422   5.7463   H         1 RES1   0.0000
    39 H3      53.5558  30.4628   4.7753   H         1 RES1   0.0000
    40 H4      54.7730  32.4121   5.8130   H         1 RES1   0.0000
    41 H5      53.9910  34.5443   5.7365   H         1 RES1   0.0000
    42 H6      52.5246  33.9418   4.9009   H         1 RES1   0.0000
    43 H7      53.4887  34.2029   2.7626   H         1 RES1   0.0000
    44 H8      54.8116  36.5579   4.2026   H         1 RES1   0.0000
    45 H9      52.1679  36.2135   4.4638   H         1 RES1   0.0000
    46 H10     51.5678  39.9675   1.6570   H         1 RES1   0.0000
    47 H11     55.8451  40.4361  -1.7359   H         1 RES1   0.0000
    48 H12     50.9534  40.7320   0.9841   H         1 RES1   0.0000
    49 H13     49.0904  42.2651   1.5592   H         1 RES1   0.0000
    50 H14     49.2471  44.6742   0.9907   H         1 RES1   0.0000
    51 H15     51.2670  45.5502  -0.1512   H         1 RES1   0.0000
    52 H16     53.1327  44.0170  -0.7203   H         1 RES1   0.0000
    53 H17     54.3713  37.5267  -0.4538   H         1 RES1   0.0000
    54 H18     55.9772  38.1554   0.0391   H         1 RES1   0.0000
    55 H19     53.7982  36.0335   1.3411   H         1 RES1   0.0000
    56 H20     56.2834  36.1252   2.4940   H         1 RES1   0.0000
    57 H21     55.4632  33.7155   1.2268   H         1 RES1   0.0000
    58 H22     57.1042  33.9698   1.8666   H         1 RES1   0.0000
    59 H23     58.1029  30.7081   2.7100   H         1 RES1   0.0000
    60 H24     57.2038  31.9458   1.7958   H         1 RES1   0.0000
    61 H25     56.0988  30.3299   0.9744   H         1 RES1   0.0000
    62 H26     54.5531  32.6178   1.7543   H         1 RES1   0.0000
    63 H27     56.2527  34.1729   5.4847   H         1 RES1   0.0000
    64 H28     56.7926  35.5071   4.4724   H         1 RES1   0.0000
    65 H29     57.5321  33.9134   4.2776   H         1 RES1   0.0000
    66 H30     57.5648  36.7216   1.9959   H         1 RES1   0.0000
    67 H31     55.1416  38.7523   3.6419   H         1 RES1   0.0000
    68 H32     56.4779  38.5196   2.4740   H         1 RES1   0.0000
    69 H33     55.3638  39.9009   2.3023   H         1 RES1   0.0000
    70 H34     50.2609  38.2117   2.4850   H         1 RES1   0.0000
    71 H35     50.4079  37.5742   4.1387   H         1 RES1   0.0000
    72 H36     50.9238  39.2433   3.7988   H         1 RES1   0.0000
    73 ****    54.2862  42.4806  -1.6444   Du        1 RES1   5.8150
    74 ****    56.4126  31.6516   5.6666   Du        1 RES1   0.0000
    75 ****    57.6611  30.7171   4.9129   Du        1 RES1   0.0000
    76 ****    55.4404  29.9954   2.3826   Du        1 RES1   0.0000
    77 ****    56.7916  29.2254   1.8847   Du        1 RES1   0.0000
    78 ****    53.5072  31.9232   2.7247   Du        1 RES1   0.0000
    79 ****    54.8398  31.1273   2.2173   Du        1 RES1   0.0000
    80 ****    56.8672  37.3101   0.6914   Du        1 RES1   0.0000
    81 ****    57.6819  35.8958   0.6398   Du        1 RES1   0.0000
@<TRIPOS>BOND
     1     1     2    1
     2     2     3    1
     3     3     4    1
     4     4     5    1
     5     5     6    1
     6     6     7    2
     7     7     8    1
     8     8     9    2
     9     9    10    1
    10    10    11   ar
    11    11    12   ar
    12    12    13   ar
    13    13    14   ar
    14    10    14   ar
    15    14    15    1
    16    15    16   ar
    17    16    17   ar
    18    17    18   ar
    19    18    19   ar
    20    19    20   ar
    21    15    20   ar
    22    11    21    1
    23    21    22    1
    24     8    22    1
    25    22    23    1
    26     5    23    1
    27    23    24    1
    28    24    25    1
    29    25    26    1
    30     4    26    1
    31    26    27    1
    32     2    27    1
    33    27    28    1
    34    28    29    2
    35    28    30    1
    36    30    31    1
    37    27    32    1
    38    26    33    1
    39    24    34    1
    40    22    35    1
    41     7    36    1
    42     1    37    1
    43     1    38    1
    44     1    39    1
    45     2    40    1
    46     3    41    1
    47     3    42    1
    48     4    43    1
    49     5    44    1
    50     6    45    1
    51     9    46    1
    52    12    47    1
    53    16    48    1
    54    17    49    1
    55    18    50    1
    56    19    51    1
    57    20    52    1
    58    21    53    1
    59    21    54    1
    60    23    55    1
    61    24    56    1
    62    25    57    1
    63    25    58    1
    64    30    59    1
    65    30    60    1
    66    31    61    1
    67    32    62    1
    68    33    63    1
    69    33    64    1
    70    33    65    1
    71    34    66    1
    72    35    67    1
    73    35    68    1
    74    35    69    1
    75    36    70    1
    76    36    71    1
    77    36    72    1
    78    13    73    1
    79    29    74    1
    80    29    75    1
    81    31    76    1
    82    31    77    1
    83    32    78    1
    84    32    79    1
    85    34    80    1
    86    34    81    1
@<TRIPOS>SUBSTRUCTURE
     1 RES1        1 GROUP             0 ****  ****    0  
@<TRIPOS>MOLECULE
5.21112103774
    81    86     1     0     0
SMALL
USER_CHARGES
****
Generated from the CSD

@<TRIPOS>ATOM
     1 C       46.3779  49.3968   0.3647   C.3       1 RES1   0.0000
     2 C       47.0005  48.5865  -0.7963   C.3       1 RES1   0.0000
     3 C       47.1668  47.0932  -0.4017   C.3       1 RES1   0.0000
     4 C       48.6909  46.8659  -0.4518   C.3       1 RES1   0.0000
     5 C       49.2058  45.4125  -0.5828   C.3       1 RES1   7.5625
     6 C       48.6572  44.5485   0.5162   C.2       1 RES1   8.4082
     7 C       49.3584  43.5655   1.0931   C.2       1 RES1  25.1598
     8 C       50.7410  43.2448   0.6664   C.2       1 RES1  33.5464
     9 C       51.3883  42.2291   1.2588   C.2       1 RES1  34.0174
    10 C       52.8073  41.9597   0.8353   C.ar      1 RES1  14.9249
    11 C       53.5341  42.8696   0.0982   C.ar      1 RES1  12.4780
    12 C       54.7672  42.2645  -0.1242   C.ar      1 RES1   7.2356
    13 N       54.7640  41.0552   0.4812   N.ar      1 RES1   7.1740
    14 N       53.5775  40.8836   1.0734   N.ar      1 RES1  14.8675
    15 C       53.1737  39.8116   1.8067   C.ar      1 RES1  14.3800
    16 C       52.1189  39.9419   2.7113   C.ar      1 RES1  32.2969
    17 C       51.7007  38.8400   3.4589   C.ar      1 RES1  40.8944
    18 C       52.3404  37.6091   3.3045   C.ar      1 RES1  30.9590
    19 C       53.3980  37.4800   2.4029   C.ar      1 RES1  12.8020
    20 C       53.8149  38.5815   1.6539   C.ar      1 RES1   9.7589
    21 C       52.9421  44.2097  -0.2931   C.3       1 RES1   7.6976
    22 C       51.3997  44.0494  -0.4506   C.3       1 RES1  23.8498
    23 C       50.7545  45.4635  -0.4674   C.3       1 RES1   9.0793
    24 C       51.4203  46.4980  -1.4372   C.3       1 RES1   0.0000
    25 C       50.6991  47.8749  -1.5772   C.3       1 RES1   0.0000
    26 C       49.1499  47.7697  -1.6147   C.3       1 RES1   0.0000
    27 C       48.4213  49.0799  -1.2143   C.3       1 RES1   0.0000
    28 C       48.5054  50.1546  -2.2754   C.2       1 RES1   0.0000
    29 O       47.4809  50.6244  -2.7429   O.2       1 RES1   0.0000
    30 C       49.8458  50.6211  -2.7814   C.3       1 RES1   0.0000
    31 O       49.9638  52.0356  -2.5887   O.3       1 RES1   0.0000
    32 O       49.0967  49.6204  -0.0685   O.3       1 RES1   0.0000
    33 C       48.6489  47.3244  -3.0226   C.3       1 RES1   0.0000
    34 O       52.3175  46.1300  -2.5007   O.3       1 RES1   0.0000
    35 C       51.1253  43.2544  -1.7518   C.3       1 RES1   8.7803
    36 C       48.7027  42.7727   2.1981   C.3       1 RES1  19.3283
    37 H1      46.9785  49.2924   1.2807   H         1 RES1   0.0000
    38 H2      45.3640  49.0184   0.5643   H         1 RES1   0.0000
    39 H3      46.3095  50.4597   0.0904   H         1 RES1   0.0000
    40 H4      46.2946  48.6233  -1.6375   H         1 RES1   0.0000
    41 H5      46.6610  46.4393  -1.1280   H         1 RES1   0.0000
    42 H6      46.7634  46.8940   0.6024   H         1 RES1   0.0000
    43 H7      49.0901  47.2734   0.4897   H         1 RES1   0.0000
    44 H8      48.8539  44.9872  -1.5320   H         1 RES1   0.0000
    45 H9      47.6358  44.7351   0.8404   H         1 RES1   0.0000
    46 H10     50.9582  41.5909   2.0269   H         1 RES1   0.0000
    47 H11     55.5907  42.6905  -0.6857   H         1 RES1   0.0000
    48 H12     51.6244  40.8993   2.8331   H         1 RES1   0.0000
    49 H13     50.8792  38.9404   4.1595   H         1 RES1   0.0000
    50 H14     52.0156  36.7529   3.8854   H         1 RES1   0.0000
    51 H15     53.8957  36.5240   2.2842   H         1 RES1   0.0000
    52 H16     54.6363  38.4825   0.9532   H         1 RES1   0.0000
    53 H17     53.1694  44.9218   0.5140   H         1 RES1   0.0000
    54 H18     53.4307  44.5399  -1.2189   H         1 RES1   0.0000
    55 H19     50.9609  45.8715   0.5341   H         1 RES1   0.0000
    56 H20     50.7808  46.0452  -2.1957   H         1 RES1   0.0000
    57 H21     51.0159  48.4491  -0.6952   H         1 RES1   0.0000
    58 H22     51.0577  48.4030  -2.4737   H         1 RES1   0.0000
    59 H23     49.9951  50.3701  -3.8407   H         1 RES1   0.0000
    60 H24     50.6332  50.1229  -2.1952   H         1 RES1   0.0000
    61 H25     50.7261  52.2388  -2.0584   H         1 RES1   0.0000
    62 H26     49.8103  50.1954  -0.3191   H         1 RES1   0.0000
    63 H27     47.5535  47.2991  -3.0725   H         1 RES1   0.0000
    64 H28     49.0016  46.3352  -3.3382   H         1 RES1   0.0000
    65 H29     49.0078  48.0502  -3.7669   H         1 RES1   0.0000
    66 H30     51.8690  46.1904  -3.3368   H         1 RES1   0.0000
    67 H31     50.0492  43.0648  -1.8706   H         1 RES1   0.0000
    68 H32     51.4943  43.7937  -2.6351   H         1 RES1   0.0000
    69 H33     51.6373  42.2823  -1.7003   H         1 RES1   0.0000
    70 H34     49.3072  42.8430   3.1146   H         1 RES1   0.0000
    71 H35     47.6942  43.1455   2.4294   H         1 RES1   0.0000
    72 H36     48.6145  41.7186   1.8957   H         1 RES1   0.0000
    73 ****    55.5201  40.4009   0.4852   Du        1 RES1   4.4438
    74 ****    46.5907  50.2987  -2.4244   Du        1 RES1   0.0000
    75 ****    47.5315  51.3351  -3.4446   Du        1 RES1   0.0000
    76 ****    49.1433  52.3740  -2.1280   Du        1 RES1   0.0000
    77 ****    50.0543  52.4820  -3.4789   Du        1 RES1   0.0000
    78 ****    49.4643  48.8666   0.4762   Du        1 RES1   0.0000
    79 ****    48.4404  50.1387   0.4797   Du        1 RES1   0.0000
    80 ****    52.6316  45.1911  -2.3599   Du        1 RES1   0.0000
    81 ****    53.1036  46.7480  -2.5005   Du        1 RES1   0.0000
@<TRIPOS>BOND
     1     1     2    1
     2     2     3    1
     3     3     4    1
     4     4     5    1
     5     5     6    1
     6     6     7    2
     7     7     8    1
     8     8     9    2
     9     9    10    1
    10    10    11   ar
    11    11    12   ar
    12    12    13   ar
    13    13    14   ar
    14    10    14   ar
    15    14    15    1
    16    15    16   ar
    17    16    17   ar
    18    17    18   ar
    19    18    19   ar
    20    19    20   ar
    21    15    20   ar
    22    11    21    1
    23    21    22    1
    24     8    22    1
    25    22    23    1
    26     5    23    1
    27    23    24    1
    28    24    25    1
    29    25    26    1
    30     4    26    1
    31    26    27    1
    32     2    27    1
    33    27    28    1
    34    28    29    2
    35    28    30    1
    36    30    31    1
    37    27    32    1
    38    26    33    1
    39    24    34    1
    40    22    35    1
    41     7    36    1
    42     1    37    1
    43     1    38    1
    44     1    39    1
    45     2    40    1
    46     3    41    1
    47     3    42    1
    48     4    43    1
    49     5    44    1
    50     6    45    1
    51     9    46    1
    52    12    47    1
    53    16    48    1
    54    17    49    1
    55    18    50    1
    56    19    51    1
    57    20    52    1
    58    21    53    1
    59    21    54    1
    60    23    55    1
    61    24    56    1
    62    25    57    1
    63    25    58    1
    64    30    59    1
    65    30    60    1
    66    31    61    1
    67    32    62    1
    68    33    63    1
    69    33    64    1
    70    33    65    1
    71    34    66    1
    72    35    67    1
    73    35    68    1
    74    35    69    1
    75    36    70    1
    76    36    71    1
    77    36    72    1
    78    13    73    1
    79    29    74    1
    80    29    75    1
    81    31    76    1
    82    31    77    1
    83    32    78    1
    84    32    79    1
    85    34    80    1
    86    34    81    1
@<TRIPOS>SUBSTRUCTURE
     1 RES1        1 GROUP             0 ****  ****    0  
@<TRIPOS>MOLECULE
4.71812621496
    81    86     1     0     0
SMALL
USER_CHARGES
****
Generated from the CSD

@<TRIPOS>ATOM
     1 C       47.2573  47.7110  -0.4985   C.3       1 RES1   0.0000
     2 C       48.3717  47.1368  -1.4042   C.3       1 RES1   0.0000
     3 C       48.6123  45.6327  -1.0991   C.3       1 RES1   3.3994
     4 C       50.0681  45.5869  -0.5937   C.3       1 RES1   9.1844
     5 C       50.8123  44.2310  -0.6405   C.3       1 RES1  25.7089
     6 C       50.0451  43.1728   0.0991   C.2       1 RES1  33.5464
     7 C       50.6342  42.2073   0.8143   C.2       1 RES1  33.7070
     8 C       52.1094  42.1035   0.9112   C.2       1 RES1  34.0174
     9 C       52.6483  41.0977   1.6180   C.2       1 RES1  32.8226
    10 C       54.1481  41.0481   1.7355   C.ar      1 RES1  12.6198
    11 C       54.9423  42.1235   1.4007   C.ar      1 RES1   6.4627
    12 C       56.2502  41.6959   1.6072   C.ar      1 RES1   0.0000
    13 N       56.2153  40.4245   2.0667   N.ar      1 RES1   2.5210
    14 N       54.9367  40.0435   2.1560   N.ar      1 RES1   6.0714
    15 C       54.4661  38.8453   2.5951   C.ar      1 RES1   7.8628
    16 C       55.0988  37.6628   2.2088   C.ar      1 RES1   3.4941
    17 C       54.6193  36.4339   2.6647   C.ar      1 RES1   4.9924
    18 C       53.5045  36.3878   3.5034   C.ar      1 RES1   9.4145
    19 C       52.8693  37.5703   3.8861   C.ar      1 RES1  14.8580
    20 C       53.3501  38.7993   3.4317   C.ar      1 RES1  12.5490
    21 C       54.3322  43.4285   0.9269   C.3       1 RES1   7.3313
    22 C       52.9935  43.1179   0.1913   C.3       1 RES1  15.3952
    23 C       52.1886  44.4401   0.0496   C.3       1 RES1  17.1261
    24 C       52.9911  45.6622  -0.5129   C.3       1 RES1   2.3661
    25 C       52.1662  46.9556  -0.8000   C.3       1 RES1   0.0000
    26 C       50.7697  46.6826  -1.4227   C.3       1 RES1   0.0000
    27 C       49.7541  47.8379  -1.2187   C.3       1 RES1   0.0000
    28 C       50.0478  49.0462  -2.0799   C.2       1 RES1   0.0000
    29 O       49.2374  49.4013  -2.9201   O.2       1 RES1   0.0000
    30 C       51.3494  49.7901  -1.9288   C.3       1 RES1   0.0000
    31 O       51.4967  50.2253  -0.5721   O.3       1 RES1   0.0000
    32 O       49.8813  48.2945   0.1365   O.3       1 RES1   0.0000
    33 C       50.8826  46.3741  -2.9471   C.3       1 RES1   0.0000
    34 O       54.2556  45.5415  -1.1898   O.3       1 RES1   0.0000
    35 C       53.3304  42.4764  -1.1782   C.3       1 RES1   9.9522
    36 C       49.7553  41.2065   1.5253   C.3       1 RES1  34.3025
    37 H1      47.4971  47.5546   0.5639   H         1 RES1   0.0000
    38 H2      46.3103  47.1979  -0.7242   H         1 RES1   0.0000
    39 H3      47.1297  48.7864  -0.6909   H         1 RES1   0.0000
    40 H4      48.0186  47.2049  -2.4424   H         1 RES1   0.0000
    41 H5      48.5079  45.0280  -2.0125   H         1 RES1   0.0000
    42 H6      47.9108  45.2582  -0.3386   H         1 RES1   0.0000
    43 H7      50.0349  45.9085   0.4586   H         1 RES1   0.0000
    44 H8      50.8946  43.8982  -1.6837   H         1 RES1   0.0000
    45 H9      48.9597  43.1988   0.0318   H         1 RES1   0.0000
    46 H10     52.0744  40.3192   2.1146   H         1 RES1   0.0000
    47 H11     57.1446  42.2824   1.4312   H         1 RES1   0.0000
    48 H12     55.9628  37.6990   1.5546   H         1 RES1   0.0000
    49 H13     55.1126  35.5153   2.3672   H         1 RES1   0.0000
    50 H14     53.1319  35.4330   3.8575   H         1 RES1   0.0000
    51 H15     52.0025  37.5342   4.5365   H         1 RES1   0.0000
    52 H16     52.8576  39.7185   3.7284   H         1 RES1   0.0000
    53 H17     54.1423  44.0484   1.8155   H         1 RES1   0.0000
    54 H18     55.0639  43.9312   0.2813   H         1 RES1   0.0000
    55 H19     51.9563  44.7326   1.0852   H         1 RES1   0.0000
    56 H20     52.7444  45.2448  -1.4897   H         1 RES1   0.0000
    57 H21     52.0529  47.4399   0.1801   H         1 RES1   0.0000
    58 H22     52.7374  47.6346  -1.4510   H         1 RES1   0.0000
    59 H23     51.4129  50.6496  -2.6105   H         1 RES1   0.0000
    60 H24     52.1749  49.1013  -2.1651   H         1 RES1   0.0000
    61 H25     51.6475  51.1632  -0.5358   H         1 RES1   0.0000
    62 H26     50.0878  47.5821   0.7303   H         1 RES1   0.0000
    63 H27     49.8961  46.2325  -3.4049   H         1 RES1   0.0000
    64 H28     51.4725  45.4814  -3.1872   H         1 RES1   0.0000
    65 H29     51.3690  47.2278  -3.4412   H         1 RES1   0.0000
    66 H30     54.4262  44.6290  -1.3948   H         1 RES1   0.0000
    67 H31     52.4116  42.1844  -1.7058   H         1 RES1   0.0000
    68 H32     53.9046  43.1660  -1.8122   H         1 RES1   0.0000
    69 H33     53.9324  41.5699  -1.0182   H         1 RES1   0.0000
    70 H34     49.9718  41.2224   2.6038   H         1 RES1   0.0000
    71 H35     48.6866  41.4296   1.3921   H         1 RES1   0.0000
    72 H36     49.9445  40.1986   1.1271   H         1 RES1   0.0000
    73 ****    57.0104  39.8646   2.3000   Du        1 RES1   0.0000
    74 ****    48.3835  48.8942  -3.0370   Du        1 RES1   0.0000
    75 ****    49.4271  50.1995  -3.4918   Du        1 RES1   0.0000
    76 ****    52.2734  49.7513  -0.1574   Du        1 RES1   0.0000
    77 ****    50.6632  50.0067  -0.0646   Du        1 RES1   0.0000
    78 ****    49.0182  48.7123   0.4199   Du        1 RES1   0.0000
    79 ****    50.6120  48.9757   0.1815   Du        1 RES1   0.0000
    80 ****    54.9829  45.8904  -0.5989   Du        1 RES1   0.0000
    81 ****    54.2306  46.0728  -2.0367   Du        1 RES1   0.0000
@<TRIPOS>BOND
     1     1     2    1
     2     2     3    1
     3     3     4    1
     4     4     5    1
     5     5     6    1
     6     6     7    2
     7     7     8    1
     8     8     9    2
     9     9    10    1
    10    10    11   ar
    11    11    12   ar
    12    12    13   ar
    13    13    14   ar
    14    10    14   ar
    15    14    15    1
    16    15    16   ar
    17    16    17   ar
    18    17    18   ar
    19    18    19   ar
    20    19    20   ar
    21    15    20   ar
    22    11    21    1
    23    21    22    1
    24     8    22    1
    25    22    23    1
    26     5    23    1
    27    23    24    1
    28    24    25    1
    29    25    26    1
    30     4    26    1
    31    26    27    1
    32     2    27    1
    33    27    28    1
    34    28    29    2
    35    28    30    1
    36    30    31    1
    37    27    32    1
    38    26    33    1
    39    24    34    1
    40    22    35    1
    41     7    36    1
    42     1    37    1
    43     1    38    1
    44     1    39    1
    45     2    40    1
    46     3    41    1
    47     3    42    1
    48     4    43    1
    49     5    44    1
    50     6    45    1
    51     9    46    1
    52    12    47    1
    53    16    48    1
    54    17    49    1
    55    18    50    1
    56    19    51    1
    57    20    52    1
    58    21    53    1
    59    21    54    1
    60    23    55    1
    61    24    56    1
    62    25    57    1
    63    25    58    1
    64    30    59    1
    65    30    60    1
    66    31    61    1
    67    32    62    1
    68    33    63    1
    69    33    64    1
    70    33    65    1
    71    34    66    1
    72    35    67    1
    73    35    68    1
    74    35    69    1
    75    36    70    1
    76    36    71    1
    77    36    72    1
    78    13    73    1
    79    29    74    1
    80    29    75    1
    81    31    76    1
    82    31    77    1
    83    32    78    1
    84    32    79    1
    85    34    80    1
    86    34    81    1
@<TRIPOS>SUBSTRUCTURE
     1 RES1        1 GROUP             0 ****  ****    0  
@<TRIPOS>MOLECULE
4.71812621496
    81    86     1     0     0
SMALL
USER_CHARGES
****
Generated from the CSD

@<TRIPOS>ATOM
     1 C       47.2768  47.7151  -0.4976   C.3       1 RES1   0.0000
     2 C       48.3918  47.1438  -1.4044   C.3       1 RES1   0.0000
     3 C       48.6332  45.6390  -1.1031   C.3       1 RES1   3.3994
     4 C       50.0889  45.5929  -0.5975   C.3       1 RES1   9.1844
     5 C       50.8339  44.2375  -0.6475   C.3       1 RES1  25.7089
     6 C       50.0671  43.1770   0.0893   C.2       1 RES1  33.5464
     7 C       50.6566  42.2100   0.8022   C.2       1 RES1  33.7070
     8 C       52.1318  42.1068   0.8992   C.2       1 RES1  34.0174
     9 C       52.6711  41.0995   1.6035   C.2       1 RES1  32.8226
    10 C       54.1709  41.0505   1.7214   C.ar      1 RES1  12.6198
    11 C       54.9646  42.1272   1.3894   C.ar      1 RES1   6.4627
    12 C       56.2726  41.6998   1.5952   C.ar      1 RES1   0.0000
    13 N       56.2384  40.4272   2.0515   N.ar      1 RES1   2.5210
    14 N       54.9599  40.0453   2.1395   N.ar      1 RES1   6.0714
    15 C       54.4899  38.8457   2.5753   C.ar      1 RES1   7.8628
    16 C       53.3618  38.7942   3.3955   C.ar      1 RES1  12.5490
    17 C       52.8761  37.5626   3.8373   C.ar      1 RES1  14.8580
    18 C       53.5213  36.3831   3.4621   C.ar      1 RES1   9.4145
    19 C       54.6520  36.4352   2.6453   C.ar      1 RES1   4.9924
    20 C       55.1365  37.6667   2.2020   C.ar      1 RES1   3.4941
    21 C       54.3538  43.4330   0.9188   C.3       1 RES1   7.3313
    22 C       53.0155  43.1236   0.1820   C.3       1 RES1  15.3952
    23 C       52.2099  44.4456   0.0435   C.3       1 RES1  17.1261
    24 C       53.0119  45.6697  -0.5157   C.3       1 RES1   2.3661
    25 C       52.1863  46.9632  -0.7997   C.3       1 RES1   0.0000
    26 C       50.7901  46.6910  -1.4235   C.3       1 RES1   0.0000
    27 C       49.7738  47.8452  -1.2168   C.3       1 RES1   0.0000
    28 C       50.0670  49.0559  -2.0748   C.2       1 RES1   0.0000
    29 O       49.2465  49.4264  -2.8985   O.2       1 RES1   0.0000
    30 C       51.3798  49.7832  -1.9414   C.3       1 RES1   0.0000
    31 O       51.4062  50.8924  -2.8474   O.3       1 RES1   0.0000
    32 O       49.9004  48.2984   0.1396   O.3       1 RES1   0.0000
    33 C       50.9036  46.3865  -2.9486   C.3       1 RES1   0.0000
    34 O       54.2766  45.5514  -1.1926   O.3       1 RES1   0.0000
    35 C       53.3531  42.4858  -1.1890   C.3       1 RES1   9.9522
    36 C       49.7780  41.2069   1.5103   C.3       1 RES1  34.3025
    37 H1      47.5164  47.5561   0.5644   H         1 RES1   0.0000
    38 H2      46.3302  47.2020  -0.7249   H         1 RES1   0.0000
    39 H3      47.1486  48.7909  -0.6873   H         1 RES1   0.0000
    40 H4      48.0389  47.2144  -2.4425   H         1 RES1   0.0000
    41 H5      48.5294  45.0366  -2.0180   H         1 RES1   0.0000
    42 H6      47.9318  45.2623  -0.3437   H         1 RES1   0.0000
    43 H7      50.0552  45.9118   0.4556   H         1 RES1   0.0000
    44 H8      50.9167  43.9074  -1.6915   H         1 RES1   0.0000
    45 H9      48.9817  43.2025   0.0217   H         1 RES1   0.0000
    46 H10     52.0975  40.3194   2.0980   H         1 RES1   0.0000
    47 H11     57.1667  42.2872   1.4209   H         1 RES1   0.0000
    48 H12     52.8629  39.7110   3.6893   H         1 RES1   0.0000
    49 H13     51.9979  37.5222   4.4721   H         1 RES1   0.0000
    50 H14     53.1440  35.4262   3.8054   H         1 RES1   0.0000
    51 H15     55.1538  35.5188   2.3551   H         1 RES1   0.0000
    52 H16     56.0146  37.7084   1.5674   H         1 RES1   0.0000
    53 H17     54.1633  44.0506   1.8090   H         1 RES1   0.0000
    54 H18     55.0854  43.9378   0.2747   H         1 RES1   0.0000
    55 H19     51.9771  44.7353   1.0798   H         1 RES1   0.0000
    56 H20     52.7656  45.2545  -1.4936   H         1 RES1   0.0000
    57 H21     52.0724  47.4450   0.1816   H         1 RES1   0.0000
    58 H22     52.7572  47.6443  -1.4488   H         1 RES1   0.0000
    59 H23     52.2369  49.1216  -2.1288   H         1 RES1   0.0000
    60 H24     51.4618  50.1705  -0.9143   H         1 RES1   0.0000
    61 H25     50.9023  51.6200  -2.5006   H         1 RES1   0.0000
    62 H26     49.1308  48.7774   0.4242   H         1 RES1   0.0000
    63 H27     49.9173  46.2455  -3.4071   H         1 RES1   0.0000
    64 H28     51.4941  45.4948  -3.1908   H         1 RES1   0.0000
    65 H29     51.3896  47.2417  -3.4404   H         1 RES1   0.0000
    66 H30     54.2470  44.8271  -1.8077   H         1 RES1   0.0000
    67 H31     52.4346  42.1945  -1.7176   H         1 RES1   0.0000
    68 H32     53.9271  43.1772  -1.8211   H         1 RES1   0.0000
    69 H33     53.9556  41.5791  -1.0311   H         1 RES1   0.0000
    70 H34     49.9942  41.2202   2.5889   H         1 RES1   0.0000
    71 H35     48.7093  41.4297   1.3774   H         1 RES1   0.0000
    72 H36     49.9679  40.2001   1.1096   H         1 RES1   0.0000
    73 ****    57.0337  39.8672   2.2836   Du        1 RES1   0.0000
    74 ****    48.3847  48.9302  -3.0040   Du        1 RES1   0.0000
    75 ****    49.4359  50.2262  -3.4680   Du        1 RES1   0.0000
    76 ****    51.0156  50.6102  -3.7236   Du        1 RES1   0.0000
    77 ****    52.3532  51.1835  -2.9829   Du        1 RES1   0.0000
    78 ****    50.6982  48.8975   0.2078   Du        1 RES1   0.0000
    79 ****    50.0271  47.5055   0.7356   Du        1 RES1   0.0000
    80 ****    54.9985  45.3867  -0.5205   Du        1 RES1   0.0000
    81 ****    54.4687  46.3990  -1.6871   Du        1 RES1   0.0000
@<TRIPOS>BOND
     1     1     2    1
     2     2     3    1
     3     3     4    1
     4     4     5    1
     5     5     6    1
     6     6     7    2
     7     7     8    1
     8     8     9    2
     9     9    10    1
    10    10    11   ar
    11    11    12   ar
    12    12    13   ar
    13    13    14   ar
    14    10    14   ar
    15    14    15    1
    16    15    16   ar
    17    16    17   ar
    18    17    18   ar
    19    18    19   ar
    20    19    20   ar
    21    15    20   ar
    22    11    21    1
    23    21    22    1
    24     8    22    1
    25    22    23    1
    26     5    23    1
    27    23    24    1
    28    24    25    1
    29    25    26    1
    30     4    26    1
    31    26    27    1
    32     2    27    1
    33    27    28    1
    34    28    29    2
    35    28    30    1
    36    30    31    1
    37    27    32    1
    38    26    33    1
    39    24    34    1
    40    22    35    1
    41     7    36    1
    42     1    37    1
    43     1    38    1
    44     1    39    1
    45     2    40    1
    46     3    41    1
    47     3    42    1
    48     4    43    1
    49     5    44    1
    50     6    45    1
    51     9    46    1
    52    12    47    1
    53    16    48    1
    54    17    49    1
    55    18    50    1
    56    19    51    1
    57    20    52    1
    58    21    53    1
    59    21    54    1
    60    23    55    1
    61    24    56    1
    62    25    57    1
    63    25    58    1
    64    30    59    1
    65    30    60    1
    66    31    61    1
    67    32    62    1
    68    33    63    1
    69    33    64    1
    70    33    65    1
    71    34    66    1
    72    35    67    1
    73    35    68    1
    74    35    69    1
    75    36    70    1
    76    36    71    1
    77    36    72    1
    78    13    73    1
    79    29    74    1
    80    29    75    1
    81    31    76    1
    82    31    77    1
    83    32    78    1
    84    32    79    1
    85    34    80    1
    86    34    81    1
@<TRIPOS>SUBSTRUCTURE
     1 RES1        1 GROUP             0 ****  ****    0  
@<TRIPOS>MOLECULE
4.68311236801
    81    86     1     0     0
SMALL
USER_CHARGES
****
Generated from the CSD

@<TRIPOS>ATOM
     1 C       47.2801  47.7040  -0.5128   C.3       1 RES1   0.0000
     2 C       48.4013  47.1420  -1.4177   C.3       1 RES1   0.0000
     3 C       48.6473  45.6366  -1.1233   C.3       1 RES1   3.3994
     4 C       50.1011  45.5935  -0.6116   C.3       1 RES1   9.1844
     5 C       50.8516  44.2414  -0.6655   C.3       1 RES1  25.7089
     6 C       50.0859  43.1740   0.0624   C.2       1 RES1  33.5464
     7 C       50.6761  42.2056   0.7727   C.2       1 RES1  33.7070
     8 C       52.1514  42.1078   0.8756   C.2       1 RES1  34.0174
     9 C       52.6916  41.0989   1.5770   C.2       1 RES1  32.8226
    10 C       54.1910  41.0553   1.7011   C.ar      1 RES1  12.6198
    11 C       54.9819  42.1368   1.3783   C.ar      1 RES1   6.4627
    12 C       56.2907  41.7136   1.5875   C.ar      1 RES1   0.0000
    13 N       56.2596  40.4384   2.0370   N.ar      1 RES1   0.0000
    14 N       54.9823  40.0510   2.1174   N.ar      1 RES1   6.0714
    15 C       54.5152  38.8473   2.5449   C.ar      1 RES1   7.8628
    16 C       53.3846  38.7870   3.3610   C.ar      1 RES1  12.5490
    17 C       52.9019  37.5512   3.7942   C.ar      1 RES1  14.8580
    18 C       53.5526  36.3762   3.4144   C.ar      1 RES1   9.4145
    19 C       54.6857  36.4370   2.6017   C.ar      1 RES1   4.9924
    20 C       55.1672  37.6727   2.1670   C.ar      1 RES1   3.4941
    21 C       54.3680  43.4427   0.9119   C.3       1 RES1   7.3313
    22 C       53.0341  43.1318   0.1677   C.3       1 RES1  15.3952
    23 C       52.2238  44.4514   0.0326   C.3       1 RES1  17.1261
    24 C       53.0233  45.6815  -0.5166   C.3       1 RES1   2.3661
    25 C       52.1938  46.9733  -0.7974   C.3       1 RES1   0.0000
    26 C       50.8014  46.6988  -1.4287   C.3       1 RES1   0.0000
    27 C       49.7796  47.8478  -1.2203   C.3       1 RES1   0.0000
    28 C       50.0717  49.0642  -2.0708   C.2       1 RES1   0.0000
    29 O       49.2484  49.4426  -2.8880   O.2       1 RES1   0.0000
    30 C       51.3867  49.7876  -1.9377   C.3       1 RES1   0.0000
    31 O       51.5648  50.2103  -0.5807   O.3       1 RES1   0.0000
    32 O       49.8985  48.2944   0.1389   O.3       1 RES1   0.0000
    33 C       50.9228  46.4028  -2.9549   C.3       1 RES1   0.0000
    34 O       54.2914  45.5718  -1.1886   O.3       1 RES1   0.0000
    35 C       53.3802  42.5026  -1.2052   C.3       1 RES1   9.9522
    36 C       49.7985  41.1953   1.4717   C.3       1 RES1  34.3025
    37 H1      47.5157  47.5403   0.5494   H         1 RES1   0.0000
    38 H2      46.3365  47.1883  -0.7469   H         1 RES1   0.0000
    39 H3      47.1484  48.7803  -0.6974   H         1 RES1   0.0000
    40 H4      48.0526  47.2166  -2.4570   H         1 RES1   0.0000
    41 H5      48.5500  45.0386  -2.0418   H         1 RES1   0.0000
    42 H6      47.9442  45.2530  -0.3690   H         1 RES1   0.0000
    43 H7      50.0615  45.9067   0.4431   H         1 RES1   0.0000
    44 H8      50.9403  43.9172  -1.7108   H         1 RES1   0.0000
    45 H9      49.0008  43.1955  -0.0098   H         1 RES1   0.0000
    46 H10     52.1190  40.3139   2.0649   H         1 RES1   0.0000
    47 H11     57.1832  42.3055   1.4203   H         1 RES1   0.0000
    48 H12     52.8814  39.7004   3.6584   H         1 RES1   0.0000
    49 H13     52.0217  37.5040   4.4258   H         1 RES1   0.0000
    50 H14     53.1776  35.4160   3.7510   H         1 RES1   0.0000
    51 H15     55.1918  35.5241   2.3079   H         1 RES1   0.0000
    52 H16     56.0473  37.7212   1.5355   H         1 RES1   0.0000
    53 H17     54.1711  44.0548   1.8045   H         1 RES1   0.0000
    54 H18     55.1003  43.9537   0.2737   H         1 RES1   0.0000
    55 H19     51.9854  44.7346   1.0694   H         1 RES1   0.0000
    56 H20     52.7830  45.2706  -1.4978   H         1 RES1   0.0000
    57 H21     52.0738  47.4494   0.1859   H         1 RES1   0.0000
    58 H22     52.7648  47.6600  -1.4404   H         1 RES1   0.0000
    59 H23     51.4507  50.6513  -2.6141   H         1 RES1   0.0000
    60 H24     52.1975  49.0886  -2.1940   H         1 RES1   0.0000
    61 H25     51.5696  51.1592  -0.5235   H         1 RES1   0.0000
    62 H26     50.5620  47.8069   0.6130   H         1 RES1   0.0000
    63 H27     49.9390  46.2603  -3.4184   H         1 RES1   0.0000
    64 H28     51.5178  45.5147  -3.1992   H         1 RES1   0.0000
    65 H29     51.4075  47.2625  -3.4401   H         1 RES1   0.0000
    66 H30     54.1607  45.5923  -2.1300   H         1 RES1   0.0000
    67 H31     52.4652  42.2105  -1.7393   H         1 RES1   0.0000
    68 H32     53.9542  43.1997  -1.8311   H         1 RES1   0.0000
    69 H33     53.9856  41.5976  -1.0494   H         1 RES1   0.0000
    70 H34     50.0100  41.2037   2.5514   H         1 RES1   0.0000
    71 H35     48.7295  41.4146   1.3353   H         1 RES1   0.0000
    72 H36     49.9942  40.1914   1.0666   H         1 RES1   0.0000
    73 ****    57.0561  39.8804   2.2696   Du        1 RES1   0.0000
    74 ****    48.3851  48.9490  -2.9933   Du        1 RES1   0.0000
    75 ****    49.4370  50.2462  -3.4525   Du        1 RES1   0.0000
    76 ****    52.4347  49.8560  -0.2377   Du        1 RES1   0.0000
    77 ****    50.8158  49.8513  -0.0238   Du        1 RES1   0.0000
    78 ****    49.0182  48.1736   0.5977   Du        1 RES1   0.0000
    79 ****    50.1453  49.2635   0.1411   Du        1 RES1   0.0000
    80 ****    54.7288  44.7097  -0.9330   Du        1 RES1   1.5693
    81 ****    54.8772  46.3359  -0.9183   Du        1 RES1   0.0000
@<TRIPOS>BOND
     1     1     2    1
     2     2     3    1
     3     3     4    1
     4     4     5    1
     5     5     6    1
     6     6     7    2
     7     7     8    1
     8     8     9    2
     9     9    10    1
    10    10    11   ar
    11    11    12   ar
    12    12    13   ar
    13    13    14   ar
    14    10    14   ar
    15    14    15    1
    16    15    16   ar
    17    16    17   ar
    18    17    18   ar
    19    18    19   ar
    20    19    20   ar
    21    15    20   ar
    22    11    21    1
    23    21    22    1
    24     8    22    1
    25    22    23    1
    26     5    23    1
    27    23    24    1
    28    24    25    1
    29    25    26    1
    30     4    26    1
    31    26    27    1
    32     2    27    1
    33    27    28    1
    34    28    29    2
    35    28    30    1
    36    30    31    1
    37    27    32    1
    38    26    33    1
    39    24    34    1
    40    22    35    1
    41     7    36    1
    42     1    37    1
    43     1    38    1
    44     1    39    1
    45     2    40    1
    46     3    41    1
    47     3    42    1
    48     4    43    1
    49     5    44    1
    50     6    45    1
    51     9    46    1
    52    12    47    1
    53    16    48    1
    54    17    49    1
    55    18    50    1
    56    19    51    1
    57    20    52    1
    58    21    53    1
    59    21    54    1
    60    23    55    1
    61    24    56    1
    62    25    57    1
    63    25    58    1
    64    30    59    1
    65    30    60    1
    66    31    61    1
    67    32    62    1
    68    33    63    1
    69    33    64    1
    70    33    65    1
    71    34    66    1
    72    35    67    1
    73    35    68    1
    74    35    69    1
    75    36    70    1
    76    36    71    1
    77    36    72    1
    78    13    73    1
    79    29    74    1
    80    29    75    1
    81    31    76    1
    82    31    77    1
    83    32    78    1
    84    32    79    1
    85    34    80    1
    86    34    81    1
@<TRIPOS>SUBSTRUCTURE
     1 RES1        1 GROUP             0 ****  ****    0  
@<TRIPOS>MOLECULE
4.64925794855
    81    86     1     0     0
SMALL
USER_CHARGES
****
Generated from the CSD

@<TRIPOS>ATOM
     1 C       47.2860  47.7310  -0.5602   C.3       1 RES1   0.0000
     2 C       48.4153  47.1760  -1.4595   C.3       1 RES1   0.0000
     3 C       48.6568  45.6677  -1.1764   C.3       1 RES1   3.3994
     4 C       50.1055  45.6182  -0.6513   C.3       1 RES1   9.1844
     5 C       50.8551  44.2657  -0.7103   C.3       1 RES1  20.1289
     6 C       50.0813  43.1927   0.0003   C.2       1 RES1  33.5464
     7 C       50.6636  42.2171   0.7074   C.2       1 RES1  33.7070
     8 C       52.1377  42.1166   0.8236   C.2       1 RES1  34.0174
     9 C       52.6701  41.1007   1.5208   C.2       1 RES1  32.8226
    10 C       54.1682  41.0542   1.6589   C.ar      1 RES1  12.6198
    11 C       54.9633  42.1377   1.3535   C.ar      1 RES1   6.4627
    12 C       56.2695  41.7110   1.5714   C.ar      1 RES1   0.0000
    13 N       56.2327  40.4319   2.0089   N.ar      1 RES1   2.5210
    14 N       54.9543  40.0452   2.0735   N.ar      1 RES1   6.0714
    15 C       54.4818  38.8382   2.4855   C.ar      1 RES1   7.8628
    16 C       53.3421  38.7717   3.2883   C.ar      1 RES1  12.5490
    17 C       52.8539  37.5325   3.7055   C.ar      1 RES1  15.4795
    18 C       53.5082  36.3604   3.3231   C.ar      1 RES1   9.4145
    19 C       54.6505  36.4274   2.5238   C.ar      1 RES1   4.9924
    20 C       55.1375  37.6665   2.1050   C.ar      1 RES1   3.4941
    21 C       54.3553  43.4485   0.8932   C.3       1 RES1   7.3313
    22 C       53.0283  43.1460   0.1335   C.3       1 RES1  15.3952
    23 C       52.2207  44.4677   0.0028   C.3       1 RES1  17.1261
    24 C       53.0268  45.7019  -0.5276   C.3       1 RES1   2.3661
    25 C       52.2015  46.9971  -0.8044   C.3       1 RES1   0.0000
    26 C       50.8149  46.7301  -1.4515   C.3       1 RES1   0.0000
    27 C       49.7924  47.8784  -1.2425   C.3       1 RES1   0.0000
    28 C       50.0939  49.1021  -2.0789   C.2       1 RES1   0.0000
    29 O       51.1653  49.1913  -2.6559   O.2       1 RES1   0.0000
    30 C       49.0931  50.2245  -2.1735   C.3       1 RES1   0.0000
    31 O       48.0243  49.8398  -3.0461   O.3       1 RES1   0.0000
    32 O       49.8988  48.3123   0.1219   O.3       1 RES1   0.0000
    33 C       50.9505  46.4479  -2.9791   C.3       1 RES1   0.0000
    34 O       54.3012  45.5969  -1.1883   O.3       1 RES1   0.0000
    35 C       53.3868  42.5289  -1.2417   C.3       1 RES1   9.9522
    36 C       49.7783  41.2015   1.3887   C.3       1 RES1  34.3025
    37 H1      47.5113  47.5574   0.5027   H         1 RES1   0.0000
    38 H2      46.3442  47.2186  -0.8080   H         1 RES1   0.0000
    39 H3      47.1573  48.8091  -0.7362   H         1 RES1   0.0000
    40 H4      48.0766  47.2605  -2.5013   H         1 RES1   0.0000
    41 H5      48.5676  45.0782  -2.1013   H         1 RES1   0.0000
    42 H6      47.9460  45.2780  -0.4324   H         1 RES1   0.0000
    43 H7      50.0562  45.9218   0.4057   H         1 RES1   0.0000
    44 H8      50.9534  43.9510  -1.7577   H         1 RES1   0.0000
    45 H9      48.9969  43.2161  -0.0820   H         1 RES1   0.0000
    46 H10     52.0920  40.3120   1.9960   H         1 RES1   0.0000
    47 H11     57.1643  42.3034   1.4181   H         1 RES1   0.0000
    48 H12     52.8360  39.6828   3.5877   H         1 RES1   0.0000
    49 H13     51.9666  37.4805   4.3267   H         1 RES1   0.0000
    50 H14     53.1290  35.3976   3.6473   H         1 RES1   0.0000
    51 H15     55.1594  35.5168   2.2280   H         1 RES1   0.0000
    52 H16     56.0247  37.7198   1.4840   H         1 RES1   0.0000
    53 H17     54.1505  44.0527   1.7895   H         1 RES1   0.0000
    54 H18     55.0943  43.9645   0.2668   H         1 RES1   0.0000
    55 H19     51.9727  44.7418   1.0397   H         1 RES1   0.0000
    56 H20     52.7955  45.3002  -1.5147   H         1 RES1   0.0000
    57 H21     52.0725  47.4644   0.1820   H         1 RES1   0.0000
    58 H22     52.7794  47.6890  -1.4357   H         1 RES1   0.0000
    59 H23     49.5538  51.1569  -2.5284   H         1 RES1   0.0000
    60 H24     48.6761  50.4062  -1.1711   H         1 RES1   0.0000
    61 H25     47.3031  50.4560  -2.9841   H         1 RES1   0.0000
    62 H26     50.7174  48.7663   0.2843   H         1 RES1   0.0000
    63 H27     49.9711  46.3108  -3.4533   H         1 RES1   0.0000
    64 H28     51.5469  45.5614  -3.2258   H         1 RES1   0.0000
    65 H29     51.4408  47.3114  -3.4518   H         1 RES1   0.0000
    66 H30     54.5805  44.6883  -1.2083   H         1 RES1   0.0000
    67 H31     52.4767  42.2428  -1.7872   H         1 RES1   0.0000
    68 H32     53.9675  43.2310  -1.8557   H         1 RES1   0.0000
    69 H33     53.9897  41.6218  -1.0884   H         1 RES1   0.0000
    70 H34     49.9794  41.1998   2.4704   H         1 RES1   0.0000
    71 H35     48.7108  41.4233   1.2441   H         1 RES1   0.0000
    72 H36     49.9767  40.2011   0.9763   H         1 RES1   0.0000
    73 ****    57.0264  39.8708   2.2440   Du        1 RES1   0.0000
    74 ****    51.8396  48.4572  -2.5746   Du        1 RES1   0.0000
    75 ****    51.3692  49.9984  -3.2100   Du        1 RES1   0.0000
    76 ****    47.7014  48.9291  -2.7884   Du        1 RES1   0.0000
    77 ****    48.3598  49.8204  -3.9879   Du        1 RES1   0.0000
    78 ****    49.8472  47.5132   0.7209   Du        1 RES1   0.0000
    79 ****    49.1397  48.9308   0.3252   Du        1 RES1   0.0000
    80 ****    54.9778  46.1412  -0.6926   Du        1 RES1   0.0000
    81 ****    54.2188  45.9393  -2.1243   Du        1 RES1   0.0000
@<TRIPOS>BOND
     1     1     2    1
     2     2     3    1
     3     3     4    1
     4     4     5    1
     5     5     6    1
     6     6     7    2
     7     7     8    1
     8     8     9    2
     9     9    10    1
    10    10    11   ar
    11    11    12   ar
    12    12    13   ar
    13    13    14   ar
    14    10    14   ar
    15    14    15    1
    16    15    16   ar
    17    16    17   ar
    18    17    18   ar
    19    18    19   ar
    20    19    20   ar
    21    15    20   ar
    22    11    21    1
    23    21    22    1
    24     8    22    1
    25    22    23    1
    26     5    23    1
    27    23    24    1
    28    24    25    1
    29    25    26    1
    30     4    26    1
    31    26    27    1
    32     2    27    1
    33    27    28    1
    34    28    29    2
    35    28    30    1
    36    30    31    1
    37    27    32    1
    38    26    33    1
    39    24    34    1
    40    22    35    1
    41     7    36    1
    42     1    37    1
    43     1    38    1
    44     1    39    1
    45     2    40    1
    46     3    41    1
    47     3    42    1
    48     4    43    1
    49     5    44    1
    50     6    45    1
    51     9    46    1
    52    12    47    1
    53    16    48    1
    54    17    49    1
    55    18    50    1
    56    19    51    1
    57    20    52    1
    58    21    53    1
    59    21    54    1
    60    23    55    1
    61    24    56    1
    62    25    57    1
    63    25    58    1
    64    30    59    1
    65    30    60    1
    66    31    61    1
    67    32    62    1
    68    33    63    1
    69    33    64    1
    70    33    65    1
    71    34    66    1
    72    35    67    1
    73    35    68    1
    74    35    69    1
    75    36    70    1
    76    36    71    1
    77    36    72    1
    78    13    73    1
    79    29    74    1
    80    29    75    1
    81    31    76    1
    82    31    77    1
    83    32    78    1
    84    32    79    1
    85    34    80    1
    86    34    81    1
@<TRIPOS>SUBSTRUCTURE
     1 RES1        1 GROUP             0 ****  ****    0  
@<TRIPOS>MOLECULE
4.52334000371
    81    86     1     0     0
SMALL
USER_CHARGES
****
Generated from the CSD

@<TRIPOS>ATOM
     1 C       47.4221  47.5975  -0.6076   C.3       1 RES1   0.0000
     2 C       48.5412  46.9694  -1.4707   C.3       1 RES1   0.0000
     3 C       48.7548  45.4763  -1.0983   C.3       1 RES1   6.2433
     4 C       50.2021  45.4315  -0.5690   C.3       1 RES1   9.1844
     5 C       50.9266  44.0643  -0.5467   C.3       1 RES1  25.7089
     6 C       50.1327  43.0497   0.2253   C.2       1 RES1  33.5464
     7 C       50.6967  42.1073   0.9899   C.2       1 RES1  33.7070
     8 C       52.1686  41.9867   1.1139   C.2       1 RES1  34.0174
     9 C       52.6819  41.0043   1.8710   C.2       1 RES1  26.2237
    10 C       54.1788  40.9385   2.0138   C.ar      1 RES1  10.3136
    11 C       54.9939  41.9872   1.6459   C.ar      1 RES1   6.4627
    12 C       56.2920  41.5501   1.8906   C.ar      1 RES1   0.0000
    13 N       56.2314  40.3001   2.4031   N.ar      1 RES1   2.1522
    14 N       54.9461  39.9416   2.4887   N.ar      1 RES1   5.3079
    15 C       54.4511  38.7701   2.9709   C.ar      1 RES1   6.5865
    16 C       54.9848  38.2127   4.1338   C.ar      1 RES1   3.4537
    17 C       54.4723  37.0138   4.6317   C.ar      1 RES1   3.7970
    18 C       53.4290  36.3705   3.9639   C.ar      1 RES1   8.3170
    19 C       52.8984  36.9259   2.7985   C.ar      1 RES1  14.8347
    20 C       53.4096  38.1258   2.3018   C.ar      1 RES1  12.9157
    21 C       54.4104  43.2793   1.1077   C.3       1 RES1   7.3313
    22 C       53.0784  42.9568   0.3653   C.3       1 RES1  15.3952
    23 C       52.2954  44.2830   0.1552   C.3       1 RES1  13.5613
    24 C       53.1244  45.4685  -0.4462   C.3       1 RES1   2.3661
    25 C       52.3232  46.7600  -0.8006   C.3       1 RES1   0.0000
    26 C       50.9322  46.4806  -1.4328   C.3       1 RES1   0.0000
    27 C       49.9310  47.6579  -1.2937   C.3       1 RES1   0.0000
    28 C       50.2554  48.8241  -2.2008   C.2       1 RES1   0.0000
    29 O       49.4626  49.1551  -3.0673   O.2       1 RES1   0.0000
    30 C       51.5660  49.5545  -2.0620   C.3       1 RES1   0.0000
    31 O       51.7303  49.9883  -0.7068   O.3       1 RES1   0.0000
    32 O       50.0448  48.1701   0.0427   O.3       1 RES1   0.0000
    33 C       51.0632  46.1058  -2.9407   C.3       1 RES1   0.0000
    34 O       54.3968  45.3010  -1.0977   O.3       1 RES1   0.0000
    35 C       53.4259  42.2527  -0.9703   C.3       1 RES1   9.9522
    36 C       49.7925  41.1504   1.7289   C.3       1 RES1  34.3025
    37 H1      47.6437  47.4831   0.4640   H         1 RES1   0.0000
    38 H2      46.4710  47.0888  -0.8260   H         1 RES1   0.0000
    39 H3      47.3134  48.6654  -0.8475   H         1 RES1   0.0000
    40 H4      48.2046  46.9982  -2.5162   H         1 RES1   0.0000
    41 H5      48.6550  44.8348  -1.9867   H         1 RES1   0.0000
    42 H6      48.0366  45.1447  -0.3336   H         1 RES1   0.0000
    43 H7      50.1580  45.7981   0.4680   H         1 RES1   0.0000
    44 H8      51.0194  43.6861  -1.5733   H         1 RES1   0.0000
    45 H9      49.0490  43.0882   0.1401   H         1 RES1   0.0000
    46 H10     52.0891  40.2560   2.3913   H         1 RES1   0.0000
    47 H11     57.1976  42.1157   1.7038   H         1 RES1   0.0000
    48 H12     55.7974  38.7113   4.6504   H         1 RES1   0.0000
    49 H13     54.8848  36.5822   5.5369   H         1 RES1   0.0000
    50 H14     53.0309  35.4388   4.3506   H         1 RES1   0.0000
    51 H15     52.0888  36.4252   2.2792   H         1 RES1   0.0000
    52 H16     52.9981  38.5582   1.3967   H         1 RES1   0.0000
    53 H17     54.2166  43.9392   1.9662   H         1 RES1   0.0000
    54 H18     55.1591  43.7435   0.4528   H         1 RES1   0.0000
    55 H19     52.0521  44.6227   1.1737   H         1 RES1   0.0000
    56 H20     52.8860  45.0133  -1.4081   H         1 RES1   0.0000
    57 H21     52.2025  47.2873   0.1561   H         1 RES1   0.0000
    58 H22     52.9140  47.4024  -1.4709   H         1 RES1   0.0000
    59 H23     51.6321  50.4132  -2.7444   H         1 RES1   0.0000
    60 H24     52.3821  48.8571  -2.3057   H         1 RES1   0.0000
    61 H25     52.2246  50.7996  -0.6725   H         1 RES1   0.0000
    62 H26     50.6832  48.8716   0.0978   H         1 RES1   0.0000
    63 H27     50.0816  45.9589  -3.4074   H         1 RES1   0.0000
    64 H28     51.6432  45.1954  -3.1336   H         1 RES1   0.0000
    65 H29     51.5695  46.9306  -3.4631   H         1 RES1   0.0000
    66 H30     54.5790  46.0540  -1.6486   H         1 RES1   0.0000
    67 H31     52.5109  41.9515  -1.4992   H         1 RES1   0.0000
    68 H32     54.0198  42.9062  -1.6240   H         1 RES1   0.0000
    69 H33     54.0119  41.3453  -0.7626   H         1 RES1   0.0000
    70 H34     49.9931  41.2092   2.8090   H         1 RES1   0.0000
    71 H35     48.7294  41.3828   1.5698   H         1 RES1   0.0000
    72 H36     49.9725  40.1238   1.3769   H         1 RES1   0.0000
    73 ****    57.0145  39.7394   2.6723   Du        1 RES1   0.0000
    74 ****    48.6028  48.6560  -3.1753   Du        1 RES1   0.0000
    75 ****    49.6727  49.9254  -3.6694   Du        1 RES1   0.0000
    76 ****    52.2197  49.2835  -0.1932   Du        1 RES1   0.0000
    77 ****    50.8299  50.1346  -0.2971   Du        1 RES1   0.0000
    78 ****    50.3259  47.4279   0.6511   Du        1 RES1   0.0000
    79 ****    49.1538  48.5194   0.3326   Du        1 RES1   0.0000
    80 ****    54.3748  44.4752  -1.6613   Du        1 RES1   0.2495
    81 ****    55.1144  45.2139  -0.4067   Du        1 RES1   0.0000
@<TRIPOS>BOND
     1     1     2    1
     2     2     3    1
     3     3     4    1
     4     4     5    1
     5     5     6    1
     6     6     7    2
     7     7     8    1
     8     8     9    2
     9     9    10    1
    10    10    11   ar
    11    11    12   ar
    12    12    13   ar
    13    13    14   ar
    14    10    14   ar
    15    14    15    1
    16    15    16   ar
    17    16    17   ar
    18    17    18   ar
    19    18    19   ar
    20    19    20   ar
    21    15    20   ar
    22    11    21    1
    23    21    22    1
    24     8    22    1
    25    22    23    1
    26     5    23    1
    27    23    24    1
    28    24    25    1
    29    25    26    1
    30     4    26    1
    31    26    27    1
    32     2    27    1
    33    27    28    1
    34    28    29    2
    35    28    30    1
    36    30    31    1
    37    27    32    1
    38    26    33    1
    39    24    34    1
    40    22    35    1
    41     7    36    1
    42     1    37    1
    43     1    38    1
    44     1    39    1
    45     2    40    1
    46     3    41    1
    47     3    42    1
    48     4    43    1
    49     5    44    1
    50     6    45    1
    51     9    46    1
    52    12    47    1
    53    16    48    1
    54    17    49    1
    55    18    50    1
    56    19    51    1
    57    20    52    1
    58    21    53    1
    59    21    54    1
    60    23    55    1
    61    24    56    1
    62    25    57    1
    63    25    58    1
    64    30    59    1
    65    30    60    1
    66    31    61    1
    67    32    62    1
    68    33    63    1
    69    33    64    1
    70    33    65    1
    71    34    66    1
    72    35    67    1
    73    35    68    1
    74    35    69    1
    75    36    70    1
    76    36    71    1
    77    36    72    1
    78    13    73    1
    79    29    74    1
    80    29    75    1
    81    31    76    1
    82    31    77    1
    83    32    78    1
    84    32    79    1
    85    34    80    1
    86    34    81    1
@<TRIPOS>SUBSTRUCTURE
     1 RES1        1 GROUP             0 ****  ****    0  
@<TRIPOS>MOLECULE
4.18759233616
    81    86     1     0     0
SMALL
USER_CHARGES
****
Generated from the CSD

@<TRIPOS>ATOM
     1 C       47.5918  47.2996  -0.5594   C.3       1 RES1   0.0000
     2 C       48.7054  46.6591  -1.4207   C.3       1 RES1   0.0000
     3 C       48.9415  45.1800  -1.0086   C.3       1 RES1   9.4764
     4 C       50.3969  45.1665  -0.5000   C.3       1 RES1  14.4333
     5 C       51.1373  43.8087  -0.4491   C.3       1 RES1  25.7089
     6 C       50.3666  42.8082   0.3636   C.2       1 RES1  33.5464
     7 C       50.9526  41.8946   1.1465   C.2       1 RES1  34.0174
     8 C       52.4274  41.7940   1.2519   C.2       1 RES1  27.9514
     9 C       52.9630  40.8398   2.0292   C.2       1 RES1  11.7893
    10 C       54.4626  40.7947   2.1514   C.ar      1 RES1   8.2967
    11 C       55.2600  41.8413   1.7412   C.ar      1 RES1   4.0602
    12 C       56.5665  41.4259   1.9790   C.ar      1 RES1   0.0000
    13 N       56.5278  40.1907   2.5282   N.ar      1 RES1   0.0000
    14 N       55.2481  39.8206   2.6433   N.ar      1 RES1   5.3079
    15 C       54.7738  38.6581   3.1663   C.ar      1 RES1   3.9822
    16 C       55.3308  38.1407   4.3368   C.ar      1 RES1   0.8404
    17 C       54.8395  36.9511   4.8766   C.ar      1 RES1   1.3614
    18 C       53.7941  36.2771   4.2433   C.ar      1 RES1   5.8743
    19 C       53.2401  36.7925   3.0704   C.ar      1 RES1  14.8347
    20 C       53.7301  37.9832   2.5317   C.ar      1 RES1  12.9157
    21 C       54.6539  43.1107   1.1749   C.3       1 RES1   9.2370
    22 C       53.3149  42.7520   0.4621   C.3       1 RES1  12.4780
    23 C       52.5137  44.0629   0.2256   C.3       1 RES1  17.5871
    24 C       53.3200  45.2395  -0.4221   C.3       1 RES1   2.2596
    25 C       52.4989  46.5113  -0.8015   C.3       1 RES1   0.0000
    26 C       51.1021  46.1982  -1.4045   C.3       1 RES1   1.0519
    27 C       50.0896  47.3679  -1.2844   C.3       1 RES1   0.0000
    28 C       50.3872  48.5108  -2.2295   C.2       1 RES1   0.0000
    29 O       49.5527  48.8469  -3.0538   O.2       1 RES1   0.0000
    30 C       51.7205  49.2111  -2.1806   C.3       1 RES1   0.0000
    31 O       51.5306  50.5734  -1.7809   O.3       1 RES1   0.0000
    32 O       50.2171  47.9198   0.0348   O.3       1 RES1   0.0000
    33 C       51.2153  45.7814  -2.9028   C.3       1 RES1   0.0000
    34 O       54.5846  45.0673  -1.0875   O.3       1 RES1   0.0000
    35 C       53.6509  42.0134  -0.8577   C.3       1 RES1  10.1940
    36 C       50.0703  40.9496   1.9263   C.3       1 RES1  34.3025
    37 H1      47.8304  47.2188   0.5117   H         1 RES1   0.0000
    38 H2      46.6436  46.7742  -0.7487   H         1 RES1   0.0000
    39 H3      47.4673  48.3588  -0.8282   H         1 RES1   0.0000
    40 H4      48.3531  46.6539  -2.4614   H         1 RES1   0.0000
    41 H5      48.8361  44.5119  -1.8766   H         1 RES1   0.0000
    42 H6      48.2385  44.8627  -0.2240   H         1 RES1   0.0000
    43 H7      50.3637  45.5626   0.5266   H         1 RES1   0.0000
    44 H8      51.2195  43.4020  -1.4657   H         1 RES1   0.0000
    45 H9      49.2814  42.8322   0.2936   H         1 RES1   0.0000
    46 H10     52.3866  40.1003   2.5796   H         1 RES1   0.0000
    47 H11     57.4626  41.9959   1.7624   H         1 RES1   0.0000
    48 H12     56.1451  38.6630   4.8265   H         1 RES1   0.0000
    49 H13     55.2701  36.5505   5.7876   H         1 RES1   0.0000
    50 H14     53.4124  35.3527   4.6626   H         1 RES1   0.0000
    51 H15     52.4289  36.2680   2.5779   H         1 RES1   0.0000
    52 H16     53.3005  38.3846   1.6208   H         1 RES1   0.0000
    53 H17     54.4650  43.7931   2.0168   H         1 RES1   0.0000
    54 H18     55.3874  43.5640   0.4957   H         1 RES1   0.0000
    55 H19     52.2814  44.4292   1.2375   H         1 RES1   0.0000
    56 H20     53.0729  44.7540  -1.3668   H         1 RES1   0.0000
    57 H21     52.3862  47.0647   0.1413   H         1 RES1   0.0000
    58 H22     53.0724  47.1405  -1.4989   H         1 RES1   0.0000
    59 H23     52.2418  49.1698  -3.1471   H         1 RES1   0.0000
    60 H24     52.3499  48.7118  -1.4281   H         1 RES1   0.0000
    61 H25     50.6872  50.6833  -1.3564   H         1 RES1   0.0000
    62 H26     49.7086  47.4313   0.6716   H         1 RES1   0.0000
    63 H27     50.2287  45.6101  -3.3503   H         1 RES1   0.0000
    64 H28     51.8028  44.8722  -3.0780   H         1 RES1   0.0000
    65 H29     51.7044  46.5962  -3.4562   H         1 RES1   0.0000
    66 H30     54.4590  44.5928  -1.9016   H         1 RES1   0.0000
    67 H31     52.7317  41.6869  -1.3640   H         1 RES1   0.0000
    68 H32     54.2276  42.6543  -1.5388   H         1 RES1   0.0000
    69 H33     54.2503  41.1190  -0.6328   H         1 RES1   0.0000
    70 H34     50.2861  41.0419   3.0011   H         1 RES1   0.0000
    71 H35     49.0024  41.1654   1.7765   H         1 RES1   0.0000
    72 H36     50.2570  39.9152   1.6013   H         1 RES1   0.0000
    73 ****    57.3212  39.6468   2.8016   Du        1 RES1   0.0000
    74 ****    48.6765  48.3673  -3.1025   Du        1 RES1   0.0000
    75 ****    49.7449  49.6019  -3.6807   Du        1 RES1   0.0000
    76 ****    51.5711  51.1615  -2.5886   Du        1 RES1   0.0000
    77 ****    52.2558  50.8328  -1.1430   Du        1 RES1   0.0000
    78 ****    49.8963  48.8669   0.0221   Du        1 RES1   0.0000
    79 ****    51.1800  47.8976   0.3035   Du        1 RES1   0.0000
    80 ****    55.2037  44.5518  -0.4951   Du        1 RES1   1.4144
    81 ****    54.9810  45.9641  -1.2839   Du        1 RES1   0.0000
@<TRIPOS>BOND
     1     1     2    1
     2     2     3    1
     3     3     4    1
     4     4     5    1
     5     5     6    1
     6     6     7    2
     7     7     8    1
     8     8     9    2
     9     9    10    1
    10    10    11   ar
    11    11    12   ar
    12    12    13   ar
    13    13    14   ar
    14    10    14   ar
    15    14    15    1
    16    15    16   ar
    17    16    17   ar
    18    17    18   ar
    19    18    19   ar
    20    19    20   ar
    21    15    20   ar
    22    11    21    1
    23    21    22    1
    24     8    22    1
    25    22    23    1
    26     5    23    1
    27    23    24    1
    28    24    25    1
    29    25    26    1
    30     4    26    1
    31    26    27    1
    32     2    27    1
    33    27    28    1
    34    28    29    2
    35    28    30    1
    36    30    31    1
    37    27    32    1
    38    26    33    1
    39    24    34    1
    40    22    35    1
    41     7    36    1
    42     1    37    1
    43     1    38    1
    44     1    39    1
    45     2    40    1
    46     3    41    1
    47     3    42    1
    48     4    43    1
    49     5    44    1
    50     6    45    1
    51     9    46    1
    52    12    47    1
    53    16    48    1
    54    17    49    1
    55    18    50    1
    56    19    51    1
    57    20    52    1
    58    21    53    1
    59    21    54    1
    60    23    55    1
    61    24    56    1
    62    25    57    1
    63    25    58    1
    64    30    59    1
    65    30    60    1
    66    31    61    1
    67    32    62    1
    68    33    63    1
    69    33    64    1
    70    33    65    1
    71    34    66    1
    72    35    67    1
    73    35    68    1
    74    35    69    1
    75    36    70    1
    76    36    71    1
    77    36    72    1
    78    13    73    1
    79    29    74    1
    80    29    75    1
    81    31    76    1
    82    31    77    1
    83    32    78    1
    84    32    79    1
    85    34    80    1
    86    34    81    1
@<TRIPOS>SUBSTRUCTURE
     1 RES1        1 GROUP             0 ****  ****    0  
@<TRIPOS>MOLECULE
4.18167776718
    81    86     1     0     0
SMALL
USER_CHARGES
****
Generated from the CSD

@<TRIPOS>ATOM
     1 C       53.2633  32.0763   5.8925   C.3       1 RES1   0.0000
     2 C       54.4801  32.9866   5.6052   C.3       1 RES1   0.0000
     3 C       54.0453  34.4743   5.4997   C.3       1 RES1   0.0000
     4 C       54.3939  34.8585   4.0479   C.3       1 RES1   0.0000
     5 C       54.5464  36.3608   3.7094   C.3       1 RES1   4.8036
     6 C       53.3118  37.1247   4.0938   C.2       1 RES1   9.6806
     7 C       52.8369  38.1536   3.3819   C.2       1 RES1  16.6826
     8 C       53.5193  38.6294   2.1554   C.2       1 RES1  12.9157
     9 C       53.0163  39.6847   1.4958   C.2       1 RES1  14.6455
    10 C       53.7060  40.1131   0.2284   C.ar      1 RES1  13.7910
    11 C       54.6260  39.3092  -0.4095   C.ar      1 RES1   6.9136
    12 C       55.0623  40.0451  -1.5067   C.ar      1 RES1   4.2079
    13 N       54.4026  41.2256  -1.5178   N.ar      1 RES1   6.7542
    14 N       53.5711  41.2536  -0.4710   N.ar      1 RES1  13.7923
    15 C       52.7120  42.2519  -0.1316   C.ar      1 RES1  31.8822
    16 C       53.1259  43.5830  -0.2017   C.ar      1 RES1  11.5464
    17 C       52.2419  44.6074   0.1405   C.ar      1 RES1  17.1261
    18 C       50.9456  44.3000   0.5568   C.ar      1 RES1  20.1289
    19 C       50.5333  42.9685   0.6309   C.ar      1 RES1  33.5464
    20 C       51.4167  41.9443   0.2868   C.ar      1 RES1  34.0174
    21 C       54.9618  37.9300   0.1240   C.3       1 RES1   1.8940
    22 C       54.7907  37.9365   1.6733   C.3       1 RES1   3.5617
    23 C       54.7538  36.4651   2.1731   C.3       1 RES1   1.9067
    24 C       55.8956  35.5392   1.6317   C.3       1 RES1   0.0000
    25 C       55.9615  34.1013   2.2349   C.3       1 RES1   0.0000
    26 C       55.6748  34.0482   3.7605   C.3       1 RES1   0.0000
    27 C       55.2073  32.6568   4.2638   C.3       1 RES1   0.0000
    28 C       56.3214  31.6344   4.3041   C.2       1 RES1   0.0000
    29 O       56.6080  31.0936   5.3596   O.2       1 RES1   0.0000
    30 C       57.1000  31.3079   3.0561   C.3       1 RES1   0.0000
    31 O       56.2149  30.7674   2.0680   O.3       1 RES1   0.0000
    32 O       54.2562  32.1485   3.3160   O.3       1 RES1   0.0000
    33 C       56.9231  34.4890   4.5845   C.3       1 RES1   0.0000
    34 O       57.0982  36.0347   1.0155   O.3       1 RES1   0.0000
    35 C       55.9617  38.7444   2.2869   C.3       1 RES1   0.3896
    36 C       51.5785  38.8354   3.8626   C.3       1 RES1  40.8944
    37 H1      52.4854  32.2095   5.1258   H         1 RES1   0.0000
    38 H2      52.8393  32.3413   6.8729   H         1 RES1   0.0000
    39 H3      53.5765  31.0223   5.9176   H         1 RES1   0.0000
    40 H4      55.1596  32.9072   6.4650   H         1 RES1   0.0000
    41 H5      54.6149  35.0979   6.2051   H         1 RES1   0.0000
    42 H6      52.9703  34.5955   5.7006   H         1 RES1   0.0000
    43 H7      53.5784  34.4612   3.4242   H         1 RES1   0.0000
    44 H8      55.3781  36.7809   4.2904   H         1 RES1   0.0000
    45 H9      52.7961  36.8229   5.0026   H         1 RES1   0.0000
    46 H10     52.1421  40.2478   1.8131   H         1 RES1   0.0000
    47 H11     55.8035  39.7260  -2.2304   H         1 RES1   0.0000
    48 H12     54.1341  43.8210  -0.5220   H         1 RES1   0.0000
    49 H13     52.5623  45.6417   0.0833   H         1 RES1   0.0000
    50 H14     50.2588  45.0959   0.8229   H         1 RES1   0.0000
    51 H15     49.5266  42.7300   0.9556   H         1 RES1   0.0000
    52 H16     51.0975  40.9097   0.3438   H         1 RES1   0.0000
    53 H17     54.2594  37.2170  -0.3327   H         1 RES1   0.0000
    54 H18     55.9850  37.6845  -0.1885   H         1 RES1   0.0000
    55 H19     53.8402  36.0454   1.7244   H         1 RES1   0.0000
    56 H20     56.4805  35.9504   2.4552   H         1 RES1   0.0000
    57 H21     55.1966  33.5320   1.6883   H         1 RES1   0.0000
    58 H22     56.9405  33.6448   2.0244   H         1 RES1   0.0000
    59 H23     57.9193  30.6034   3.2556   H         1 RES1   0.0000
    60 H24     57.5348  32.2392   2.6619   H         1 RES1   0.0000
    61 H25     56.0425  29.8485   2.2398   H         1 RES1   0.0000
    62 H26     54.1849  31.2022   3.3616   H         1 RES1   0.0000
    63 H27     56.7459  34.4034   5.6635   H         1 RES1   0.0000
    64 H28     57.2485  35.5196   4.3994   H         1 RES1   0.0000
    65 H29     57.7644  33.8305   4.3234   H         1 RES1   0.0000
    66 H30     57.8313  35.9359   1.6127   H         1 RES1   0.0000
    67 H31     55.8466  38.8266   3.3768   H         1 RES1   0.0000
    68 H32     56.9305  38.2773   2.0625   H         1 RES1   0.0000
    69 H33     55.9619  39.7616   1.8682   H         1 RES1   0.0000
    70 H34     50.8108  38.7954   3.0757   H         1 RES1   0.0000
    71 H35     51.1666  38.3531   4.7611   H         1 RES1   0.0000
    72 H36     51.7971  39.8848   4.1100   H         1 RES1   0.0000
    73 ****    54.5171  41.9536  -2.1937   Du        1 RES1   4.2434
    74 ****    56.1072  31.3270   6.1932   Du        1 RES1   0.0000
    75 ****    57.3438  30.4171   5.3912   Du        1 RES1   0.0000
    76 ****    56.6346  30.8598   1.1651   Du        1 RES1   0.0000
    77 ****    55.3522  31.2728   2.0879   Du        1 RES1   0.0000
    78 ****    54.5469  32.4074   2.3949   Du        1 RES1   0.0000
    79 ****    53.3609  32.5504   3.5083   Du        1 RES1   0.0000
    80 ****    56.9815  37.0020   0.7906   Du        1 RES1   0.0000
    81 ****    57.2797  35.5176   0.1790   Du        1 RES1   0.0000
@<TRIPOS>BOND
     1     1     2    1
     2     2     3    1
     3     3     4    1
     4     4     5    1
     5     5     6    1
     6     6     7    2
     7     7     8    1
     8     8     9    2
     9     9    10    1
    10    10    11   ar
    11    11    12   ar
    12    12    13   ar
    13    13    14   ar
    14    10    14   ar
    15    14    15    1
    16    15    16   ar
    17    16    17   ar
    18    17    18   ar
    19    18    19   ar
    20    19    20   ar
    21    15    20   ar
    22    11    21    1
    23    21    22    1
    24     8    22    1
    25    22    23    1
    26     5    23    1
    27    23    24    1
    28    24    25    1
    29    25    26    1
    30     4    26    1
    31    26    27    1
    32     2    27    1
    33    27    28    1
    34    28    29    2
    35    28    30    1
    36    30    31    1
    37    27    32    1
    38    26    33    1
    39    24    34    1
    40    22    35    1
    41     7    36    1
    42     1    37    1
    43     1    38    1
    44     1    39    1
    45     2    40    1
    46     3    41    1
    47     3    42    1
    48     4    43    1
    49     5    44    1
    50     6    45    1
    51     9    46    1
    52    12    47    1
    53    16    48    1
    54    17    49    1
    55    18    50    1
    56    19    51    1
    57    20    52    1
    58    21    53    1
    59    21    54    1
    60    23    55    1
    61    24    56    1
    62    25    57    1
    63    25    58    1
    64    30    59    1
    65    30    60    1
    66    31    61    1
    67    32    62    1
    68    33    63    1
    69    33    64    1
    70    33    65    1
    71    34    66    1
    72    35    67    1
    73    35    68    1
    74    35    69    1
    75    36    70    1
    76    36    71    1
    77    36    72    1
    78    13    73    1
    79    29    74    1
    80    29    75    1
    81    31    76    1
    82    31    77    1
    83    32    78    1
    84    32    79    1
    85    34    80    1
    86    34    81    1
@<TRIPOS>SUBSTRUCTURE
     1 RES1        1 GROUP             0 ****  ****    0  
@<TRIPOS>MOLECULE
4.13772190821
    81    86     1     0     0
SMALL
USER_CHARGES
****
Generated from the CSD

@<TRIPOS>ATOM
     1 C       47.5767  47.4389  -0.5472   C.3       1 RES1   0.0000
     2 C       48.6934  46.8289  -1.4265   C.3       1 RES1   0.0000
     3 C       48.9282  45.3362  -1.0657   C.3       1 RES1   6.2433
     4 C       50.3817  45.3049  -0.5526   C.3       1 RES1   9.1844
     5 C       51.1221  43.9461  -0.5467   C.3       1 RES1  25.7089
     6 C       50.3486  42.9178   0.2277   C.2       1 RES1  33.5464
     7 C       50.9319  41.9773   0.9802   C.2       1 RES1  34.0174
     8 C       52.4063  41.8731   1.0873   C.2       1 RES1  32.0357
     9 C       52.9392  40.8922   1.8326   C.2       1 RES1  11.7893
    10 C       54.4383  40.8428   1.9584   C.ar      1 RES1   8.2967
    11 C       55.2372  41.9030   1.5881   C.ar      1 RES1   6.4627
    12 C       56.5428  41.4796   1.8158   C.ar      1 RES1   0.0000
    13 N       56.5023  40.2258   2.3212   N.ar      1 RES1   0.0000
    14 N       55.2222  39.8520   2.4187   N.ar      1 RES1   5.3079
    15 C       54.7462  38.6719   2.8990   C.ar      1 RES1   6.8524
    16 C       55.0227  37.4814   2.2251   C.ar      1 RES1   3.4941
    17 C       54.5393  36.2700   2.7219   C.ar      1 RES1   4.9924
    18 C       53.7760  36.2501   3.8902   C.ar      1 RES1   5.8743
    19 C       53.4960  37.4413   4.5618   C.ar      1 RES1  10.1262
    20 C       53.9810  38.6524   4.0660   C.ar      1 RES1   9.1272
    21 C       54.6329  43.1915   1.0644   C.3       1 RES1   9.2370
    22 C       53.2965  42.8581   0.3347   C.3       1 RES1  12.4780
    23 C       52.4961  44.1764   0.1414   C.3       1 RES1  17.5871
    24 C       53.3046  45.3750  -0.4617   C.3       1 RES1   1.0580
    25 C       52.4847  46.6593  -0.7993   C.3       1 RES1   0.0000
    26 C       51.0901  46.3677  -1.4179   C.3       1 RES1   0.0000
    27 C       50.0770  47.5325  -1.2605   C.3       1 RES1   0.0000
    28 C       50.3779  48.7078  -2.1639   C.2       1 RES1   0.0000
    29 O       51.4498  49.2832  -2.0709   O.2       1 RES1   0.0000
    30 C       49.3478  49.1916  -3.1514   C.3       1 RES1   0.0000
    31 O       48.9534  50.5270  -2.8152   O.3       1 RES1   0.0000
    32 O       50.1998  48.0378   0.0777   O.3       1 RES1   0.0000
    33 C       51.2087  46.0035  -2.9294   C.3       1 RES1   0.0000
    34 O       54.5716  45.2262  -1.1282   O.3       1 RES1   0.0000
    35 C       53.6373  42.1662  -1.0090   C.3       1 RES1  10.1940
    36 C       50.0469  41.0056   1.7232   C.3       1 RES1  34.3025
    37 H1      47.8115  47.3206   0.5212   H         1 RES1   0.0000
    38 H2      46.6292  46.9204  -0.7582   H         1 RES1   0.0000
    39 H3      47.4531  48.5069  -0.7792   H         1 RES1   0.0000
    40 H4      48.3449  46.8602  -2.4680   H         1 RES1   0.0000
    41 H5      48.8260  44.6990  -1.9569   H         1 RES1   0.0000
    42 H6      48.2224  44.9917  -0.2951   H         1 RES1   0.0000
    43 H7      50.3449  45.6648   0.4871   H         1 RES1   0.0000
    44 H8      51.2080  43.5753  -1.5766   H         1 RES1   0.0000
    45 H9      49.2637  42.9442   0.1547   H         1 RES1   0.0000
    46 H10     52.3609  40.1339   2.3547   H         1 RES1   0.0000
    47 H11     57.4397  42.0568   1.6225   H         1 RES1   0.0000
    48 H12     55.6130  37.4979   1.3157   H         1 RES1   0.0000
    49 H13     54.7566  35.3446   2.2000   H         1 RES1   0.0000
    50 H14     53.4003  35.3089   4.2762   H         1 RES1   0.0000
    51 H15     52.9018  37.4257   5.4686   H         1 RES1   0.0000
    52 H16     53.7643  39.5784   4.5868   H         1 RES1   0.0000
    53 H17     54.4410  43.8440   1.9290   H         1 RES1   0.0000
    54 H18     55.3688  43.6683   0.4042   H         1 RES1   0.0000
    55 H19     52.2602  44.5071   1.1647   H         1 RES1   0.0000
    56 H20     53.0608  44.9229  -1.4238   H         1 RES1   0.0000
    57 H21     52.3686  47.1794   0.1619   H         1 RES1   0.0000
    58 H22     53.0607  47.3126  -1.4722   H         1 RES1   0.0000
    59 H23     48.4680  48.5341  -3.1826   H         1 RES1   0.0000
    60 H24     49.8036  49.2050  -4.1533   H         1 RES1   0.0000
    61 H25     48.4064  50.5288  -2.0378   H         1 RES1   0.0000
    62 H26     49.4965  48.6392   0.2929   H         1 RES1   0.0000
    63 H27     50.2237  45.8481  -3.3862   H         1 RES1   0.0000
    64 H28     51.7969  45.1011  -3.1343   H         1 RES1   0.0000
    65 H29     51.6997  46.8373  -3.4522   H         1 RES1   0.0000
    66 H30     54.9649  44.3936  -0.8917   H         1 RES1   0.0000
    67 H31     52.7200  41.8576  -1.5297   H         1 RES1   0.0000
    68 H32     54.2163  42.8305  -1.6652   H         1 RES1   0.0000
    69 H33     54.2360  41.2644  -0.8134   H         1 RES1   0.0000
    70 H34     50.2589  41.0601   2.8014   H         1 RES1   0.0000
    71 H35     48.9795  41.2266   1.5773   H         1 RES1   0.0000
    72 H36     50.2349  39.9833   1.3629   H         1 RES1   0.0000
    73 ****    57.2947  39.6726   2.5782   Du        1 RES1   0.0000
    74 ****    52.1249  48.9773  -1.3995   Du        1 RES1   0.0000
    75 ****    51.6533  50.0607  -2.6659   Du        1 RES1   0.0000
    76 ****    48.4409  50.9203  -3.5785   Du        1 RES1   0.0000
    77 ****    49.7704  51.0775  -2.6435   Du        1 RES1   0.0000
    78 ****    51.0733  48.5168   0.1641   Du        1 RES1   0.0000
    79 ****    50.1762  47.2695   0.7174   Du        1 RES1   0.0000
    80 ****    55.1803  45.9706  -0.8538   Du        1 RES1   0.0000
    81 ****    54.4316  45.2578  -2.1179   Du        1 RES1   0.0000
@<TRIPOS>BOND
     1     1     2    1
     2     2     3    1
     3     3     4    1
     4     4     5    1
     5     5     6    1
     6     6     7    2
     7     7     8    1
     8     8     9    2
     9     9    10    1
    10    10    11   ar
    11    11    12   ar
    12    12    13   ar
    13    13    14   ar
    14    10    14   ar
    15    14    15    1
    16    15    16   ar
    17    16    17   ar
    18    17    18   ar
    19    18    19   ar
    20    19    20   ar
    21    15    20   ar
    22    11    21    1
    23    21    22    1
    24     8    22    1
    25    22    23    1
    26     5    23    1
    27    23    24    1
    28    24    25    1
    29    25    26    1
    30     4    26    1
    31    26    27    1
    32     2    27    1
    33    27    28    1
    34    28    29    2
    35    28    30    1
    36    30    31    1
    37    27    32    1
    38    26    33    1
    39    24    34    1
    40    22    35    1
    41     7    36    1
    42     1    37    1
    43     1    38    1
    44     1    39    1
    45     2    40    1
    46     3    41    1
    47     3    42    1
    48     4    43    1
    49     5    44    1
    50     6    45    1
    51     9    46    1
    52    12    47    1
    53    16    48    1
    54    17    49    1
    55    18    50    1
    56    19    51    1
    57    20    52    1
    58    21    53    1
    59    21    54    1
    60    23    55    1
    61    24    56    1
    62    25    57    1
    63    25    58    1
    64    30    59    1
    65    30    60    1
    66    31    61    1
    67    32    62    1
    68    33    63    1
    69    33    64    1
    70    33    65    1
    71    34    66    1
    72    35    67    1
    73    35    68    1
    74    35    69    1
    75    36    70    1
    76    36    71    1
    77    36    72    1
    78    13    73    1
    79    29    74    1
    80    29    75    1
    81    31    76    1
    82    31    77    1
    83    32    78    1
    84    32    79    1
    85    34    80    1
    86    34    81    1
@<TRIPOS>SUBSTRUCTURE
     1 RES1        1 GROUP             0 ****  ****    0  
@<TRIPOS>MOLECULE
4.11109715141
    81    86     1     0     0
SMALL
USER_CHARGES
****
Generated from the CSD

@<TRIPOS>ATOM
     1 C       47.5991  47.4186  -0.5992   C.3       1 RES1   0.0000
     2 C       48.7239  46.7977  -1.4602   C.3       1 RES1   0.0000
     3 C       48.9591  45.3113  -1.0746   C.3       1 RES1   6.2433
     4 C       50.4086  45.2912  -0.5498   C.3       1 RES1   9.1844
     5 C       51.1519  43.9343  -0.5171   C.3       1 RES1  25.7089
     6 C       50.3745  42.9162   0.2670   C.2       1 RES1  33.5464
     7 C       50.9538  41.9888   1.0384   C.2       1 RES1  34.0174
     8 C       52.4276  41.8896   1.1586   C.2       1 RES1  32.0357
     9 C       52.9568  40.9215   1.9231   C.2       1 RES1  11.7893
    10 C       54.4549  40.8774   2.0615   C.ar      1 RES1   8.2967
    11 C       55.2544  41.9337   1.6810   C.ar      1 RES1   4.0602
    12 C       56.5591  41.5167   1.9254   C.ar      1 RES1   0.0000
    13 N       56.5173  40.2709   2.4498   N.ar      1 RES1   0.0000
    14 N       55.2373  39.8956   2.5431   N.ar      1 RES1   5.3079
    15 C       54.7600  38.7220   3.0378   C.ar      1 RES1   3.9822
    16 C       55.3052  38.1828   4.2040   C.ar      1 RES1   1.4000
    17 C       54.8108  36.9817   4.7148   C.ar      1 RES1   1.9453
    18 C       53.7742  36.3181   4.0566   C.ar      1 RES1   5.8743
    19 C       53.2320  36.8553   2.8880   C.ar      1 RES1  14.8347
    20 C       53.7251  38.0574   2.3784   C.ar      1 RES1  12.9157
    21 C       54.6515  43.2126   1.1328   C.3       1 RES1   9.2370
    22 C       53.3216  42.8649   0.3980   C.3       1 RES1  12.4780
    23 C       52.5199  44.1783   0.1781   C.3       1 RES1  17.5871
    24 C       53.3305  45.3693  -0.4372   C.3       1 RES1   1.0580
    25 C       52.5106  46.6464  -0.8009   C.3       1 RES1   0.0000
    26 C       51.1215  46.3420  -1.4258   C.3       1 RES1   0.0000
    27 C       50.1047  47.5068  -1.2943   C.3       1 RES1   0.0000
    28 C       50.4102  48.6688  -2.2133   C.2       1 RES1   0.0000
    29 O       51.4919  49.2286  -2.1414   O.2       1 RES1   0.0000
    30 C       49.3733  49.1589  -3.1906   C.3       1 RES1   0.0000
    31 O       49.9198  49.1452  -4.5146   O.3       1 RES1   0.0000
    32 O       50.2159  48.0330   0.0369   O.3       1 RES1   0.0000
    33 C       51.2527  45.9549  -2.9306   C.3       1 RES1   0.0000
    34 O       54.6030  45.2131  -1.0914   O.3       1 RES1   0.0000
    35 C       53.6744  42.1531  -0.9322   C.3       1 RES1  10.1940
    36 C       50.0652  41.0267   1.7894   C.3       1 RES1  34.3025
    37 H1      47.8258  47.3173   0.4727   H         1 RES1   0.0000
    38 H2      46.6544  46.8948  -0.8096   H         1 RES1   0.0000
    39 H3      47.4750  48.4826  -0.8487   H         1 RES1   0.0000
    40 H4      48.3835  46.8121  -2.5048   H         1 RES1   0.0000
    41 H5      48.8653  44.6601  -1.9566   H         1 RES1   0.0000
    42 H6      48.2480  44.9771  -0.3044   H         1 RES1   0.0000
    43 H7      50.3629  45.6669   0.4840   H         1 RES1   0.0000
    44 H8      51.2466  43.5478  -1.5405   H         1 RES1   0.0000
    45 H9      49.2901  42.9391   0.1851   H         1 RES1   0.0000
    46 H10     52.3760  40.1700   2.4524   H         1 RES1   0.0000
    47 H11     57.4562  42.0929   1.7303   H         1 RES1   0.0000
    48 H12     56.1127  38.6972   4.7130   H         1 RES1   0.0000
    49 H13     55.2322  36.5642   5.6225   H         1 RES1   0.0000
    50 H14     53.3901  35.3848   4.4534   H         1 RES1   0.0000
    51 H15     52.4276  36.3388   2.3762   H         1 RES1   0.0000
    52 H16     53.3047  38.4757   1.4708   H         1 RES1   0.0000
    53 H17     54.4514  43.8778   1.9858   H         1 RES1   0.0000
    54 H18     55.3916  43.6808   0.4711   H         1 RES1   0.0000
    55 H19     52.2752  44.5241   1.1942   H         1 RES1   0.0000
    56 H20     53.0953  44.9018  -1.3940   H         1 RES1   0.0000
    57 H21     52.3858  47.1809   0.1513   H         1 RES1   0.0000
    58 H22     53.0904  47.2905  -1.4792   H         1 RES1   0.0000
    59 H23     49.0163  50.1674  -2.9394   H         1 RES1   0.0000
    60 H24     48.5136  48.4720  -3.1616   H         1 RES1   0.0000
    61 H25     49.2345  49.0052  -5.1583   H         1 RES1   0.0000
    62 H26     49.4358  47.8592   0.5505   H         1 RES1   0.0000
    63 H27     50.2717  45.7902  -3.3926   H         1 RES1   0.0000
    64 H28     51.8445  45.0508  -3.1169   H         1 RES1   0.0000
    65 H29     51.7460  46.7816  -3.4623   H         1 RES1   0.0000
    66 H30     54.5126  44.6327  -1.8389   H         1 RES1   0.0000
    67 H31     52.7618  41.8345  -1.4552   H         1 RES1   0.0000
    68 H32     54.2571  42.8086  -1.5940   H         1 RES1   0.0000
    69 H33     54.2735  41.2558  -0.7181   H         1 RES1   0.0000
    70 H34     50.2685  41.0983   2.8683   H         1 RES1   0.0000
    71 H35     48.9985  41.2430   1.6318   H         1 RES1   0.0000
    72 H36     50.2582  39.9993   1.4464   H         1 RES1   0.0000
    73 ****    57.3089  39.7235   2.7215   Du        1 RES1   0.0000
    74 ****    52.1720  48.9188  -1.4769   Du        1 RES1   0.0000
    75 ****    51.6984  49.9972  -2.7469   Du        1 RES1   0.0000
    76 ****    50.5922  48.4084  -4.5849   Du        1 RES1   0.0000
    77 ****    50.3659  50.0219  -4.6950   Du        1 RES1   0.0000
    78 ****    50.3549  49.0219  -0.0163   Du        1 RES1   0.0000
    79 ****    51.0016  47.6097   0.4879   Du        1 RES1   0.0000
    80 ****    55.2617  44.8243  -0.4472   Du        1 RES1   0.0000
    81 ****    54.9281  46.1062  -1.4022   Du        1 RES1   0.0000
@<TRIPOS>BOND
     1     1     2    1
     2     2     3    1
     3     3     4    1
     4     4     5    1
     5     5     6    1
     6     6     7    2
     7     7     8    1
     8     8     9    2
     9     9    10    1
    10    10    11   ar
    11    11    12   ar
    12    12    13   ar
    13    13    14   ar
    14    10    14   ar
    15    14    15    1
    16    15    16   ar
    17    16    17   ar
    18    17    18   ar
    19    18    19   ar
    20    19    20   ar
    21    15    20   ar
    22    11    21    1
    23    21    22    1
    24     8    22    1
    25    22    23    1
    26     5    23    1
    27    23    24    1
    28    24    25    1
    29    25    26    1
    30     4    26    1
    31    26    27    1
    32     2    27    1
    33    27    28    1
    34    28    29    2
    35    28    30    1
    36    30    31    1
    37    27    32    1
    38    26    33    1
    39    24    34    1
    40    22    35    1
    41     7    36    1
    42     1    37    1
    43     1    38    1
    44     1    39    1
    45     2    40    1
    46     3    41    1
    47     3    42    1
    48     4    43    1
    49     5    44    1
    50     6    45    1
    51     9    46    1
    52    12    47    1
    53    16    48    1
    54    17    49    1
    55    18    50    1
    56    19    51    1
    57    20    52    1
    58    21    53    1
    59    21    54    1
    60    23    55    1
    61    24    56    1
    62    25    57    1
    63    25    58    1
    64    30    59    1
    65    30    60    1
    66    31    61    1
    67    32    62    1
    68    33    63    1
    69    33    64    1
    70    33    65    1
    71    34    66    1
    72    35    67    1
    73    35    68    1
    74    35    69    1
    75    36    70    1
    76    36    71    1
    77    36    72    1
    78    13    73    1
    79    29    74    1
    80    29    75    1
    81    31    76    1
    82    31    77    1
    83    32    78    1
    84    32    79    1
    85    34    80    1
    86    34    81    1
@<TRIPOS>SUBSTRUCTURE
     1 RES1        1 GROUP             0 ****  ****    0  
@<TRIPOS>MOLECULE
3.97391752139
    81    86     1     0     0
SMALL
USER_CHARGES
****
Generated from the CSD

@<TRIPOS>ATOM
     1 C       47.9026  47.9264  -0.8344   C.3       1 RES1   0.0000
     2 C       49.0528  47.3294  -1.6786   C.3       1 RES1   0.0000
     3 C       49.2238  45.8131  -1.3866   C.3       1 RES1   0.4598
     4 C       50.6423  45.7097  -0.7916   C.3       1 RES1   8.1264
     5 C       51.3429  44.3301  -0.8164   C.3       1 RES1  15.5950
     6 C       50.4958  43.2868  -0.1460   C.2       1 RES1  29.3447
     7 C       51.0062  42.2903   0.5870   C.2       1 RES1  33.5582
     8 C       52.4680  42.1348   0.7746   C.2       1 RES1  32.0357
     9 C       52.9276  41.0998   1.4952   C.2       1 RES1  14.9973
    10 C       54.4144  40.9973   1.7060   C.ar      1 RES1   9.4764
    11 C       55.2633  42.0503   1.4415   C.ar      1 RES1   4.0602
    12 C       56.5405  41.5751   1.7220   C.ar      1 RES1   0.0000
    13 N       56.4347  40.2983   2.1550   N.ar      1 RES1   0.0000
    14 N       55.1412  39.9597   2.1567   N.ar      1 RES1   6.0714
    15 C       54.6044  38.7713   2.5431   C.ar      1 RES1   7.8628
    16 C       55.2309  37.5749   2.1911   C.ar      1 RES1   3.4941
    17 C       54.6832  36.3558   2.5933   C.ar      1 RES1   4.9924
    18 C       53.5066  36.3336   3.3439   C.ar      1 RES1   9.4145
    19 C       52.8778  37.5301   3.6922   C.ar      1 RES1  15.4795
    20 C       53.4267  38.7492   3.2916   C.ar      1 RES1  12.8020
    21 C       54.7278  43.3829   0.9544   C.3       1 RES1   7.3313
    22 C       53.4290  43.1301   0.1304   C.3       1 RES1  12.4780
    23 C       52.6787  44.4810  -0.0373   C.3       1 RES1  13.5613
    24 C       53.5552  45.6841  -0.5257   C.3       1 RES1   1.0580
    25 C       52.7933  47.0092  -0.8402   C.3       1 RES1   0.0000
    26 C       51.4309  46.7941  -1.5545   C.3       1 RES1   0.0000
    27 C       50.4430  47.9798  -1.3936   C.3       1 RES1   0.0000
    28 C       50.8304  49.1913  -2.2122   C.2       1 RES1   0.0000
    29 O       51.9169  49.2244  -2.7665   O.2       1 RES1   0.0000
    30 C       49.8967  50.3693  -2.3167   C.3       1 RES1   0.0000
    31 O       49.6446  50.8970  -1.0091   O.3       1 RES1   0.0000
    32 O       50.4989  48.4097  -0.0249   O.3       1 RES1   0.0000
    33 C       51.6301  46.5068  -3.0741   C.3       1 RES1   0.0000
    34 O       54.8554  45.5314  -1.1238   O.3       1 RES1   0.0000
    35 C       53.8308  42.4998  -1.2267   C.3       1 RES1   9.6206
    36 C       50.0514  41.3086   1.2226   C.3       1 RES1  34.3025
    37 H1      48.0692  47.7446   0.2379   H         1 RES1   0.0000
    38 H2      46.9555  47.4495  -1.1287   H         1 RES1   0.0000
    39 H3      47.8230  49.0085  -1.0147   H         1 RES1   0.0000
    40 H4      48.7687  47.4264  -2.7355   H         1 RES1   0.0000
    41 H5      49.1578  45.2273  -2.3157   H         1 RES1   0.0000
    42 H6      48.4635  45.4505  -0.6788   H         1 RES1   0.0000
    43 H7      50.5529  46.0151   0.2623   H         1 RES1   0.0000
    44 H8      51.4803  44.0117  -1.8582   H         1 RES1   0.0000
    45 H9      49.4184  43.3508  -0.2810   H         1 RES1   0.0000
    46 H10     52.2979  40.3333   1.9403   H         1 RES1   0.0000
    47 H11     57.4632  42.1336   1.6135   H         1 RES1   0.0000
    48 H12     56.1432  37.5926   1.6053   H         1 RES1   0.0000
    49 H13     55.1714  35.4263   2.3225   H         1 RES1   0.0000
    50 H14     53.0808  35.3864   3.6563   H         1 RES1   0.0000
    51 H15     51.9631  37.5124   4.2741   H         1 RES1   0.0000
    52 H16     52.9393  39.6792   3.5616   H         1 RES1   0.0000
    53 H17     54.5024  43.9944   1.8406   H         1 RES1   0.0000
    54 H18     55.5152  43.8708   0.3655   H         1 RES1   0.0000
    55 H19     52.3909  44.7643   0.9868   H         1 RES1   0.0000
    56 H20     53.3574  45.2912  -1.5236   H         1 RES1   0.0000
    57 H21     52.6340  47.4812   0.1395   H         1 RES1   0.0000
    58 H22     53.4267  47.6790  -1.4414   H         1 RES1   0.0000
    59 H23     48.9496  50.1008  -2.8050   H         1 RES1   0.0000
    60 H24     50.3855  51.1502  -2.9191   H         1 RES1   0.0000
    61 H25     49.7591  51.8406  -1.0011   H         1 RES1   0.0000
    62 H26     49.9556  47.8691   0.5365   H         1 RES1   0.0000
    63 H27     50.6705  46.4063  -3.5957   H         1 RES1   0.0000
    64 H28     52.2043  45.5986  -3.2930   H         1 RES1   0.0000
    65 H29     52.1748  47.3513  -3.5209   H         1 RES1   0.0000
    66 H30     55.1522  44.6335  -1.0263   H         1 RES1   0.0000
    67 H31     52.9383  42.2478  -1.8164   H         1 RES1   0.0000
    68 H32     54.4666  43.1796  -1.8105   H         1 RES1   0.0000
    69 H33     54.3913  41.5708  -1.0458   H         1 RES1   0.0000
    70 H34     50.1994  41.2995   2.3128   H         1 RES1   0.0000
    71 H35     49.0013  41.5700   1.0266   H         1 RES1   0.0000
    72 H36     50.2322  40.3014   0.8187   H         1 RES1   0.0000
    73 ****    57.1945  39.7080   2.4276   Du        1 RES1   0.0000
    74 ****    52.5468  48.4528  -2.6785   Du        1 RES1   0.0000
    75 ****    52.1774  50.0232  -3.3088   Du        1 RES1   0.0000
    76 ****    50.2820  50.4831  -0.3592   Du        1 RES1   0.0000
    77 ****    48.7064  50.6776  -0.7415   Du        1 RES1   0.0000
    78 ****    50.1808  49.3562   0.0306   Du        1 RES1   0.0000
    79 ****    51.4457  48.3572   0.2927   Du        1 RES1   0.0000
    80 ****    55.5026  46.1456  -0.6722   Du        1 RES1   0.0000
    81 ****    54.8023  45.7596  -2.0959   Du        1 RES1   0.0000
@<TRIPOS>BOND
     1     1     2    1
     2     2     3    1
     3     3     4    1
     4     4     5    1
     5     5     6    1
     6     6     7    2
     7     7     8    1
     8     8     9    2
     9     9    10    1
    10    10    11   ar
    11    11    12   ar
    12    12    13   ar
    13    13    14   ar
    14    10    14   ar
    15    14    15    1
    16    15    16   ar
    17    16    17   ar
    18    17    18   ar
    19    18    19   ar
    20    19    20   ar
    21    15    20   ar
    22    11    21    1
    23    21    22    1
    24     8    22    1
    25    22    23    1
    26     5    23    1
    27    23    24    1
    28    24    25    1
    29    25    26    1
    30     4    26    1
    31    26    27    1
    32     2    27    1
    33    27    28    1
    34    28    29    2
    35    28    30    1
    36    30    31    1
    37    27    32    1
    38    26    33    1
    39    24    34    1
    40    22    35    1
    41     7    36    1
    42     1    37    1
    43     1    38    1
    44     1    39    1
    45     2    40    1
    46     3    41    1
    47     3    42    1
    48     4    43    1
    49     5    44    1
    50     6    45    1
    51     9    46    1
    52    12    47    1
    53    16    48    1
    54    17    49    1
    55    18    50    1
    56    19    51    1
    57    20    52    1
    58    21    53    1
    59    21    54    1
    60    23    55    1
    61    24    56    1
    62    25    57    1
    63    25    58    1
    64    30    59    1
    65    30    60    1
    66    31    61    1
    67    32    62    1
    68    33    63    1
    69    33    64    1
    70    33    65    1
    71    34    66    1
    72    35    67    1
    73    35    68    1
    74    35    69    1
    75    36    70    1
    76    36    71    1
    77    36    72    1
    78    13    73    1
    79    29    74    1
    80    29    75    1
    81    31    76    1
    82    31    77    1
    83    32    78    1
    84    32    79    1
    85    34    80    1
    86    34    81    1
@<TRIPOS>SUBSTRUCTURE
     1 RES1        1 GROUP             0 ****  ****    0  
@<TRIPOS>MOLECULE
3.25013562373
    81    86     1     0     0
SMALL
USER_CHARGES
****
Generated from the CSD

@<TRIPOS>ATOM
     1 C       50.9864  49.3890  -1.6048   C.3       1 RES1   0.0000
     2 C       52.1265  48.5212  -2.1870   C.3       1 RES1   0.0000
     3 C       51.8693  47.0138  -1.9130   C.3       1 RES1   0.0000
     4 C       53.0523  46.5946  -1.0175   C.3       1 RES1   0.0000
     5 C       53.3995  45.0893  -0.9282   C.3       1 RES1   1.9692
     6 C       52.2038  44.2880  -0.4998   C.2       1 RES1  17.1261
     7 C       52.2887  43.2161   0.2969   C.2       1 RES1  31.8822
     8 C       53.5928  42.7272   0.8038   C.2       1 RES1  14.8091
     9 C       53.6234  41.6296   1.5757   C.2       1 RES1  14.8675
    10 C       54.9582  41.1869   2.1124   C.ar      1 RES1   6.0695
    11 C       56.0660  42.0061   2.0799   C.ar      1 RES1   1.4666
    12 C       57.1000  41.2517   2.6254   C.ar      1 RES1   0.0000
    13 N       56.6048  40.0449   2.9822   N.ar      1 RES1   0.0000
    14 N       55.3021  40.0183   2.6816   N.ar      1 RES1   3.5658
    15 C       54.4304  38.9971   2.8988   C.ar      1 RES1   6.5865
    16 C       53.5256  39.0652   3.9593   C.ar      1 RES1  12.4010
    17 C       52.6270  38.0199   4.1779   C.ar      1 RES1  30.2871
    18 C       52.6365  36.9048   3.3384   C.ar      1 RES1  29.6693
    19 C       53.5444  36.8350   2.2805   C.ar      1 RES1  12.3508
    20 C       54.4417  37.8813   2.0608   C.ar      1 RES1   6.4727
    21 C       55.9798  43.4159   1.5278   C.3       1 RES1   1.1126
    22 C       54.8791  43.4558   0.4249   C.3       1 RES1   5.2474
    23 C       54.5217  44.9407   0.1361   C.3       1 RES1   0.8721
    24 C       55.7412  45.8944  -0.1034   C.3       1 RES1   0.0000
    25 C       55.4000  47.3538  -0.5387   C.3       1 RES1   0.0000
    26 C       54.2231  47.4476  -1.5480   C.3       1 RES1   0.0000
    27 C       53.5282  48.8347  -1.5755   C.3       1 RES1   0.0000
    28 C       54.3618  49.9037  -2.2466   C.2       1 RES1   0.0000
    29 O       55.5232  49.6702  -2.5390   O.2       1 RES1   0.0000
    30 C       53.7757  51.2641  -2.5226   C.3       1 RES1   0.0000
    31 O       53.7849  51.5113  -3.9335   O.3       1 RES1   0.0000
    32 O       53.3712  49.2696  -0.2163   O.3       1 RES1   0.0000
    33 C       54.6888  47.0883  -2.9921   C.3       1 RES1   0.0000
    34 O       57.0709  45.4289  -0.3980   O.3       1 RES1   0.0000
    35 C       55.4198  42.7194  -0.8265   C.3       1 RES1   3.6960
    36 C       51.0133  42.4991   0.6693   C.3       1 RES1  33.5582
    37 H1      50.8589  49.1969  -0.5289   H         1 RES1   0.0000
    38 H2      50.0462  49.1405  -2.1199   H         1 RES1   0.0000
    39 H3      51.2036  50.4555  -1.7635   H         1 RES1   0.0000
    40 H4      52.1196  48.6587  -3.2771   H         1 RES1   0.0000
    41 H5      51.8809  46.4394  -2.8515   H         1 RES1   0.0000
    42 H6      50.9056  46.8546  -1.4066   H         1 RES1   0.0000
    43 H7      52.8002  46.9355  -0.0016   H         1 RES1   0.0000
    44 H8      53.6912  44.7248  -1.9221   H         1 RES1   0.0000
    45 H9      51.2301  44.5991  -0.8718   H         1 RES1   0.0000
    46 H10     52.7488  41.0415   1.8427   H         1 RES1   0.0000
    47 H11     58.1271  41.5764   2.7454   H         1 RES1   0.0000
    48 H12     53.5208  39.9302   4.6131   H         1 RES1   0.0000
    49 H13     51.9219  38.0740   4.9999   H         1 RES1   0.0000
    50 H14     51.9384  36.0926   3.5083   H         1 RES1   0.0000
    51 H15     53.5525  35.9681   1.6293   H         1 RES1   0.0000
    52 H16     55.1473  37.8282   1.2393   H         1 RES1   0.0000
    53 H17     55.7082  44.0825   2.3597   H         1 RES1   0.0000
    54 H18     56.9714  43.6931   1.1474   H         1 RES1   0.0000
    55 H19     54.0835  45.3059   1.0777   H         1 RES1   0.0000
    56 H20     55.6886  45.5369  -1.1324   H         1 RES1   0.0000
    57 H21     55.1373  47.8713   0.3947   H         1 RES1   0.0000
    58 H22     56.2911  47.8434  -0.9599   H         1 RES1   0.0000
    59 H23     54.3196  52.0604  -1.9958   H         1 RES1   0.0000
    60 H24     52.7314  51.2718  -2.1746   H         1 RES1   0.0000
    61 H25     54.1012  50.7488  -4.4050   H         1 RES1   0.0000
    62 H26     54.2083  49.4539   0.1934   H         1 RES1   0.0000
    63 H27     53.8759  47.2036  -3.7193   H         1 RES1   0.0000
    64 H28     55.0701  46.0664  -3.1052   H         1 RES1   0.0000
    65 H29     55.5016  47.7721  -3.2774   H         1 RES1   0.0000
    66 H30     57.1509  44.5110  -0.1634   H         1 RES1   0.0000
    67 H31     54.6504  42.6702  -1.6098   H         1 RES1   0.0000
    68 H32     56.3115  43.2187  -1.2300   H         1 RES1   0.0000
    69 H33     55.6928  41.6893  -0.5540   H         1 RES1   0.0000
    70 H34     50.9044  42.4796   1.7639   H         1 RES1   0.0000
    71 H35     50.1253  42.9945   0.2504   H         1 RES1   0.0000
    72 H36     51.0414  41.4689   0.2843   H         1 RES1   0.0000
    73 ****    57.1244  39.2994   3.3997   Du        1 RES1   0.0000
    74 ****    55.9199  48.7753  -2.3349   Du        1 RES1   0.0000
    75 ****    56.0782  50.3738  -2.9827   Du        1 RES1   0.0000
    76 ****    54.3833  52.2888  -4.1270   Du        1 RES1   0.0000
    77 ****    52.8555  51.7226  -4.2362   Du        1 RES1   0.0000
    78 ****    52.9081  48.5508   0.3022   Du        1 RES1   0.0000
    79 ****    52.8148  50.1004  -0.2043   Du        1 RES1   0.0000
    80 ****    57.7335  45.9642   0.1258   Du        1 RES1   0.0000
    81 ****    57.2519  45.5385  -1.3753   Du        1 RES1   0.0000
@<TRIPOS>BOND
     1     1     2    1
     2     2     3    1
     3     3     4    1
     4     4     5    1
     5     5     6    1
     6     6     7    2
     7     7     8    1
     8     8     9    2
     9     9    10    1
    10    10    11   ar
    11    11    12   ar
    12    12    13   ar
    13    13    14   ar
    14    10    14   ar
    15    14    15    1
    16    15    16   ar
    17    16    17   ar
    18    17    18   ar
    19    18    19   ar
    20    19    20   ar
    21    15    20   ar
    22    11    21    1
    23    21    22    1
    24     8    22    1
    25    22    23    1
    26     5    23    1
    27    23    24    1
    28    24    25    1
    29    25    26    1
    30     4    26    1
    31    26    27    1
    32     2    27    1
    33    27    28    1
    34    28    29    2
    35    28    30    1
    36    30    31    1
    37    27    32    1
    38    26    33    1
    39    24    34    1
    40    22    35    1
    41     7    36    1
    42     1    37    1
    43     1    38    1
    44     1    39    1
    45     2    40    1
    46     3    41    1
    47     3    42    1
    48     4    43    1
    49     5    44    1
    50     6    45    1
    51     9    46    1
    52    12    47    1
    53    16    48    1
    54    17    49    1
    55    18    50    1
    56    19    51    1
    57    20    52    1
    58    21    53    1
    59    21    54    1
    60    23    55    1
    61    24    56    1
    62    25    57    1
    63    25    58    1
    64    30    59    1
    65    30    60    1
    66    31    61    1
    67    32    62    1
    68    33    63    1
    69    33    64    1
    70    33    65    1
    71    34    66    1
    72    35    67    1
    73    35    68    1
    74    35    69    1
    75    36    70    1
    76    36    71    1
    77    36    72    1
    78    13    73    1
    79    29    74    1
    80    29    75    1
    81    31    76    1
    82    31    77    1
    83    32    78    1
    84    32    79    1
    85    34    80    1
    86    34    81    1
@<TRIPOS>SUBSTRUCTURE
     1 RES1        1 GROUP             0 ****  ****    0  
@<TRIPOS>MOLECULE
3.17004875047
    81    86     1     0     0
SMALL
USER_CHARGES
****
Generated from the CSD

@<TRIPOS>ATOM
     1 C       50.5445  49.2369  -1.3504   C.3       1 RES1   0.0000
     2 C       51.6871  48.4272  -2.0067   C.3       1 RES1   0.0000
     3 C       51.4922  46.9042  -1.7705   C.3       1 RES1   0.0000
     4 C       52.7254  46.4991  -0.9386   C.3       1 RES1   0.0000
     5 C       53.1261  45.0046  -0.9119   C.3       1 RES1   3.5297
     6 C       51.9770  44.1497  -0.4601   C.2       1 RES1  22.6894
     7 C       52.1314  43.0576   0.2977   C.2       1 RES1  31.8822
     8 C       53.4713  42.5989   0.7343   C.2       1 RES1  14.8091
     9 C       53.5713  41.4800   1.4688   C.2       1 RES1  14.8675
    10 C       54.9416  41.0676   1.9354   C.ar      1 RES1   6.0695
    11 C       56.0191  41.9254   1.8833   C.ar      1 RES1   1.4666
    12 C       57.1000  41.1909   2.3611   C.ar      1 RES1   0.0000
    13 N       56.6609  39.9573   2.6994   N.ar      1 RES1   0.0000
    14 N       55.3482  39.8948   2.4523   N.ar      1 RES1   3.5658
    15 C       54.5210  38.8379   2.6727   C.ar      1 RES1   7.8628
    16 C       53.2438  39.0479   3.1947   C.ar      1 RES1  16.8438
    17 C       52.3930  37.9636   3.4147   C.ar      1 RES1  33.3652
    18 C       52.8215  36.6691   3.1165   C.ar      1 RES1  11.1910
    19 C       54.1005  36.4589   2.5985   C.ar      1 RES1   7.5789
    20 C       54.9505  37.5435   2.3767   C.ar      1 RES1   3.6296
    21 C       55.8627  43.3475   1.3805   C.3       1 RES1   1.1126
    22 C       54.7154  43.3828   0.3259   C.3       1 RES1   7.3313
    23 C       54.2968  44.8626   0.0997   C.3       1 RES1   0.8721
    24 C       55.4726  45.8649  -0.1595   C.3       1 RES1   0.0000
    25 C       55.0648  47.3242  -0.5334   C.3       1 RES1   0.0000
    26 C       53.8436  47.4078  -1.4896   C.3       1 RES1   0.0000
    27 C       53.1023  48.7703  -1.4441   C.3       1 RES1   0.0000
    28 C       53.8706  49.8875  -2.1145   C.2       1 RES1   0.0000
    29 O       54.9968  50.1608  -1.7329   O.2       1 RES1   0.0000
    30 C       53.2387  50.6854  -3.2256   C.3       1 RES1   0.0000
    31 O       54.2029  51.5944  -3.7696   O.3       1 RES1   0.0000
    32 O       52.9887  49.1578  -0.0663   O.3       1 RES1   0.0000
    33 C       54.2593  47.1092  -2.9625   C.3       1 RES1   0.0000
    34 O       56.8033  45.4548  -0.5235   O.3       1 RES1   0.0000
    35 C       55.2267  42.7041  -0.9696   C.3       1 RES1   6.0181
    36 C       50.8975  42.2858   0.6995   C.3       1 RES1  33.5582
    37 H1      50.4692  49.0078  -0.2768   H         1 RES1   0.0000
    38 H2      49.5921  48.9718  -1.8338   H         1 RES1   0.0000
    39 H3      50.7191  50.3146  -1.4838   H         1 RES1   0.0000
    40 H4      51.6294  48.5976  -3.0906   H         1 RES1   0.0000
    41 H5      51.4831  46.3594  -2.7265   H         1 RES1   0.0000
    42 H6      50.5567  46.6963  -1.2300   H         1 RES1   0.0000
    43 H7      52.5055  46.7999   0.0972   H         1 RES1   0.0000
    44 H8      53.3874  44.6809  -1.9281   H         1 RES1   0.0000
    45 H9      50.9786  44.4382  -0.7814   H         1 RES1   0.0000
    46 H10     52.7289  40.8541   1.7529   H         1 RES1   0.0000
    47 H11     58.1199  41.5472   2.4489   H         1 RES1   0.0000
    48 H12     52.9127  40.0535   3.4291   H         1 RES1   0.0000
    49 H13     51.3996  38.1269   3.8173   H         1 RES1   0.0000
    50 H14     52.1606  35.8266   3.2875   H         1 RES1   0.0000
    51 H15     54.4336  35.4531   2.3683   H         1 RES1   0.0000
    52 H16     55.9441  37.3814   1.9743   H         1 RES1   0.0000
    53 H17     55.6046  43.9786   2.2438   H         1 RES1   0.0000
    54 H18     56.8274  43.6703   0.9684   H         1 RES1   0.0000
    55 H19     53.8871  45.1835   1.0698   H         1 RES1   0.0000
    56 H20     55.3883  45.5373  -1.1962   H         1 RES1   0.0000
    57 H21     54.8249  47.8035   0.4261   H         1 RES1   0.0000
    58 H22     55.9203  47.8570  -0.9753   H         1 RES1   0.0000
    59 H23     52.3516  51.2359  -2.8828   H         1 RES1   0.0000
    60 H24     52.9272  49.9911  -4.0209   H         1 RES1   0.0000
    61 H25     55.0709  51.4030  -3.4325   H         1 RES1   0.0000
    62 H26     53.7157  49.7052   0.2066   H         1 RES1   0.0000
    63 H27     53.4128  47.2184  -3.6514   H         1 RES1   0.0000
    64 H28     54.6693  46.1050  -3.1239   H         1 RES1   0.0000
    65 H29     55.0360  47.8290  -3.2592   H         1 RES1   0.0000
    66 H30     57.4288  46.1230  -0.2662   H         1 RES1   0.0000
    67 H31     54.4269  42.6522  -1.7216   H         1 RES1   0.0000
    68 H32     56.0834  43.2461  -1.3935   H         1 RES1   0.0000
    69 H33     55.5452  41.6763  -0.7417   H         1 RES1   0.0000
    70 H34     50.8359  42.2292   1.7965   H         1 RES1   0.0000
    71 H35     49.9765  42.7627   0.3337   H         1 RES1   0.0000
    72 H36     50.9436  41.2695   0.2809   H         1 RES1   0.0000
    73 ****    57.2222  39.2179   3.0710   Du        1 RES1   0.0000
    74 ****    55.4081  49.6470  -0.9800   Du        1 RES1   0.0000
    75 ****    55.5087  50.8986  -2.1731   Du        1 RES1   0.0000
    76 ****    53.9516  52.5291  -3.5183   Du        1 RES1   0.0000
    77 ****    54.2107  51.5076  -4.7658   Du        1 RES1   0.0000
    78 ****    52.9722  48.3346   0.5013   Du        1 RES1   0.0000
    79 ****    52.1363  49.6656   0.0581   Du        1 RES1   0.0000
    80 ****    56.8499  45.3204  -1.5134   Du        1 RES1   0.0000
    81 ****    57.0247  44.5969  -0.0598   Du        1 RES1   0.0000
@<TRIPOS>BOND
     1     1     2    1
     2     2     3    1
     3     3     4    1
     4     4     5    1
     5     5     6    1
     6     6     7    2
     7     7     8    1
     8     8     9    2
     9     9    10    1
    10    10    11   ar
    11    11    12   ar
    12    12    13   ar
    13    13    14   ar
    14    10    14   ar
    15    14    15    1
    16    15    16   ar
    17    16    17   ar
    18    17    18   ar
    19    18    19   ar
    20    19    20   ar
    21    15    20   ar
    22    11    21    1
    23    21    22    1
    24     8    22    1
    25    22    23    1
    26     5    23    1
    27    23    24    1
    28    24    25    1
    29    25    26    1
    30     4    26    1
    31    26    27    1
    32     2    27    1
    33    27    28    1
    34    28    29    2
    35    28    30    1
    36    30    31    1
    37    27    32    1
    38    26    33    1
    39    24    34    1
    40    22    35    1
    41     7    36    1
    42     1    37    1
    43     1    38    1
    44     1    39    1
    45     2    40    1
    46     3    41    1
    47     3    42    1
    48     4    43    1
    49     5    44    1
    50     6    45    1
    51     9    46    1
    52    12    47    1
    53    16    48    1
    54    17    49    1
    55    18    50    1
    56    19    51    1
    57    20    52    1
    58    21    53    1
    59    21    54    1
    60    23    55    1
    61    24    56    1
    62    25    57    1
    63    25    58    1
    64    30    59    1
    65    30    60    1
    66    31    61    1
    67    32    62    1
    68    33    63    1
    69    33    64    1
    70    33    65    1
    71    34    66    1
    72    35    67    1
    73    35    68    1
    74    35    69    1
    75    36    70    1
    76    36    71    1
    77    36    72    1
    78    13    73    1
    79    29    74    1
    80    29    75    1
    81    31    76    1
    82    31    77    1
    83    32    78    1
    84    32    79    1
    85    34    80    1
    86    34    81    1
@<TRIPOS>SUBSTRUCTURE
     1 RES1        1 GROUP             0 ****  ****    0  
@<TRIPOS>MOLECULE
3.12444815996
    81    86     1     0     0
SMALL
USER_CHARGES
****
Generated from the CSD

@<TRIPOS>ATOM
     1 C       50.4484  49.1375  -1.4698   C.3       1 RES1   0.0000
     2 C       51.5937  48.3161  -2.1066   C.3       1 RES1   0.0000
     3 C       51.4139  46.8003  -1.8179   C.3       1 RES1   0.0000
     4 C       52.6562  46.4341  -0.9815   C.3       1 RES1   0.0000
     5 C       53.0703  44.9449  -0.9074   C.3       1 RES1   3.5297
     6 C       51.9320  44.0958  -0.4189   C.2       1 RES1  22.6894
     7 C       52.1012  43.0313   0.3741   C.2       1 RES1  31.8822
     8 C       53.4481  42.5992   0.8164   C.2       1 RES1  14.8091
     9 C       53.5629  41.5066   1.5875   C.2       1 RES1  14.8675
    10 C       54.9400  41.1221   2.0580   C.ar      1 RES1   6.0695
    11 C       56.0095  41.9868   1.9694   C.ar      1 RES1   1.4666
    12 C       57.1000  41.2783   2.4641   C.ar      1 RES1   0.0000
    13 N       56.6741  40.0530   2.8467   N.ar      1 RES1   0.0000
    14 N       55.3605  39.9709   2.6112   N.ar      1 RES1   3.5658
    15 C       54.5442  38.9149   2.8729   C.ar      1 RES1   6.5865
    16 C       54.9188  37.9609   3.8203   C.ar      1 RES1   3.4537
    17 C       54.0779  36.8809   4.0931   C.ar      1 RES1   7.8498
    18 C       52.8645  36.7531   3.4151   C.ar      1 RES1  14.8347
    19 C       52.4921  37.7050   2.4646   C.ar      1 RES1  30.9590
    20 C       53.3321  38.7860   2.1933   C.ar      1 RES1  13.0501
    21 C       55.8370  43.3898   1.4202   C.3       1 RES1   1.1126
    22 C       54.6824  43.3796   0.3731   C.3       1 RES1   7.3313
    23 C       54.2491  44.8472   0.1002   C.3       1 RES1   1.3264
    24 C       55.4142  45.8503  -0.2009   C.3       1 RES1   0.0000
    25 C       54.9909  47.2926  -0.6209   C.3       1 RES1   0.0000
    26 C       53.7626  47.3334  -1.5707   C.3       1 RES1   0.0000
    27 C       53.0095  48.6901  -1.5658   C.3       1 RES1   0.0000
    28 C       53.7633  49.7907  -2.2790   C.2       1 RES1   0.0000
    29 O       54.8355  50.1725  -1.8392   O.2       1 RES1   0.0000
    30 C       53.1801  50.4400  -3.5072   C.3       1 RES1   0.0000
    31 O       52.9720  49.4480  -4.5194   O.3       1 RES1   0.0000
    32 O       52.9019  49.1229  -0.2012   O.3       1 RES1   0.0000
    33 C       54.1709  46.9888  -3.0356   C.3       1 RES1   0.0000
    34 O       56.7460  45.4397  -0.5604   O.3       1 RES1   0.0000
    35 C       55.1909  42.6620  -0.9024   C.3       1 RES1   6.0181
    36 C       50.8770  42.2629   0.8104   C.3       1 RES1  33.5582
    37 H1      50.3824  48.9441  -0.3887   H         1 RES1   0.0000
    38 H2      49.4951  48.8481  -1.9373   H         1 RES1   0.0000
    39 H3      50.6125  50.2116  -1.6406   H         1 RES1   0.0000
    40 H4      51.5271  48.4493  -3.1952   H         1 RES1   0.0000
    41 H5      51.4031  46.2235  -2.7549   H         1 RES1   0.0000
    42 H6      50.4839  46.6027  -1.2640   H         1 RES1   0.0000
    43 H7      52.4407  46.7678   0.0451   H         1 RES1   0.0000
    44 H8      53.3276  44.5894  -1.9139   H         1 RES1   0.0000
    45 H9      50.9289  44.3647  -0.7426   H         1 RES1   0.0000
    46 H10     52.7280  40.8834   1.8985   H         1 RES1   0.0000
    47 H11     58.1173  41.6461   2.5325   H         1 RES1   0.0000
    48 H12     55.8630  38.0591   4.3443   H         1 RES1   0.0000
    49 H13     54.3673  36.1413   4.8313   H         1 RES1   0.0000
    50 H14     52.2112  35.9139   3.6270   H         1 RES1   0.0000
    51 H15     51.5500  37.6046   1.9372   H         1 RES1   0.0000
    52 H16     53.0439  39.5261   1.4553   H         1 RES1   0.0000
    53 H17     55.5792  44.0474   2.2635   H         1 RES1   0.0000
    54 H18     56.7960  43.7068   0.9906   H         1 RES1   0.0000
    55 H19     53.8431  45.1971   1.0618   H         1 RES1   0.0000
    56 H20     55.3258  45.4872  -1.2254   H         1 RES1   0.0000
    57 H21     54.7533  47.8019   0.3236   H         1 RES1   0.0000
    58 H22     55.8387  47.8175  -1.0866   H         1 RES1   0.0000
    59 H23     53.8235  51.2434  -3.8920   H         1 RES1   0.0000
    60 H24     52.2051  50.8767  -3.2420   H         1 RES1   0.0000
    61 H25     52.1523  48.9889  -4.3747   H         1 RES1   0.0000
    62 H26     52.3738  48.5267   0.3168   H         1 RES1   0.0000
    63 H27     53.3188  47.0674  -3.7218   H         1 RES1   0.0000
    64 H28     54.5887  45.9834  -3.1660   H         1 RES1   0.0000
    65 H29     54.9391  47.7049  -3.3619   H         1 RES1   0.0000
    66 H30     57.3764  45.8344   0.0318   H         1 RES1   0.0000
    67 H31     54.3864  42.5779  -1.6465   H         1 RES1   0.0000
    68 H32     56.0397  43.1967  -1.3504   H         1 RES1   0.0000
    69 H33     55.5200  41.6452  -0.6423   H         1 RES1   0.0000
    70 H34     50.8232  42.2428   1.9091   H         1 RES1   0.0000
    71 H35     49.9493  42.7192   0.4353   H         1 RES1   0.0000
    72 H36     50.9292  41.2334   0.4260   H         1 RES1   0.0000
    73 ****    57.2446  39.3314   3.2390   Du        1 RES1   0.0000
    74 ****    55.2122  49.7581  -1.0107   Du        1 RES1   0.0000
    75 ****    55.3375  50.8998  -2.3072   Du        1 RES1   0.0000
    76 ****    53.7254  48.7908  -4.4952   Du        1 RES1   0.0000
    77 ****    52.9461  49.8925  -5.4148   Du        1 RES1   0.0000
    78 ****    52.4805  50.0295  -0.1812   Du        1 RES1   0.0000
    79 ****    53.8182  49.1724   0.1961   Du        1 RES1   0.0000
    80 ****    56.9420  45.7320  -1.4964   Du        1 RES1   0.0000
    81 ****    56.8135  44.4438  -0.5012   Du        1 RES1   0.0000
@<TRIPOS>BOND
     1     1     2    1
     2     2     3    1
     3     3     4    1
     4     4     5    1
     5     5     6    1
     6     6     7    2
     7     7     8    1
     8     8     9    2
     9     9    10    1
    10    10    11   ar
    11    11    12   ar
    12    12    13   ar
    13    13    14   ar
    14    10    14   ar
    15    14    15    1
    16    15    16   ar
    17    16    17   ar
    18    17    18   ar
    19    18    19   ar
    20    19    20   ar
    21    15    20   ar
    22    11    21    1
    23    21    22    1
    24     8    22    1
    25    22    23    1
    26     5    23    1
    27    23    24    1
    28    24    25    1
    29    25    26    1
    30     4    26    1
    31    26    27    1
    32     2    27    1
    33    27    28    1
    34    28    29    2
    35    28    30    1
    36    30    31    1
    37    27    32    1
    38    26    33    1
    39    24    34    1
    40    22    35    1
    41     7    36    1
    42     1    37    1
    43     1    38    1
    44     1    39    1
    45     2    40    1
    46     3    41    1
    47     3    42    1
    48     4    43    1
    49     5    44    1
    50     6    45    1
    51     9    46    1
    52    12    47    1
    53    16    48    1
    54    17    49    1
    55    18    50    1
    56    19    51    1
    57    20    52    1
    58    21    53    1
    59    21    54    1
    60    23    55    1
    61    24    56    1
    62    25    57    1
    63    25    58    1
    64    30    59    1
    65    30    60    1
    66    31    61    1
    67    32    62    1
    68    33    63    1
    69    33    64    1
    70    33    65    1
    71    34    66    1
    72    35    67    1
    73    35    68    1
    74    35    69    1
    75    36    70    1
    76    36    71    1
    77    36    72    1
    78    13    73    1
    79    29    74    1
    80    29    75    1
    81    31    76    1
    82    31    77    1
    83    32    78    1
    84    32    79    1
    85    34    80    1
    86    34    81    1
@<TRIPOS>SUBSTRUCTURE
     1 RES1        1 GROUP             0 ****  ****    0  
@<TRIPOS>MOLECULE
3.0659471079
    81    86     1     0     0
SMALL
USER_CHARGES
****
Generated from the CSD

@<TRIPOS>ATOM
     1 C       51.0862  49.4970  -1.5671   C.3       1 RES1   0.0000
     2 C       52.1888  48.5988  -2.1750   C.3       1 RES1   0.0000
     3 C       51.9010  47.0993  -1.8887   C.3       1 RES1   0.0000
     4 C       53.0956  46.6532  -1.0221   C.3       1 RES1   0.0000
     5 C       53.4071  45.1399  -0.9360   C.3       1 RES1   1.9692
     6 C       52.2030  44.3704  -0.4740   C.2       1 RES1  17.1261
     7 C       52.2814  43.2992   0.3244   C.2       1 RES1  23.9116
     8 C       53.5853  42.7792   0.7996   C.2       1 RES1  12.4780
     9 C       53.6082  41.6837   1.5747   C.2       1 RES1  14.8675
    10 C       54.9447  41.2092   2.0788   C.ar      1 RES1   6.0695
    11 C       56.0716  42.0001   2.0148   C.ar      1 RES1   1.4666
    12 C       57.1000  41.2216   2.5365   C.ar      1 RES1   0.0000
    13 N       56.5840  40.0288   2.9105   N.ar      1 RES1   0.0000
    14 N       55.2737  40.0341   2.6435   N.ar      1 RES1   3.5658
    15 C       54.3825  39.0359   2.8869   C.ar      1 RES1   6.5865
    16 C       53.4201  38.7106   1.9299   C.ar      1 RES1  12.9157
    17 C       52.5098  37.6820   2.1774   C.ar      1 RES1  29.6770
    18 C       52.5597  36.9819   3.3839   C.ar      1 RES1  29.6693
    19 C       53.5195  37.3102   4.3426   C.ar      1 RES1  10.1262
    20 C       54.4310  38.3376   4.0941   C.ar      1 RES1   5.8328
    21 C       56.0068  43.4098   1.4596   C.3       1 RES1   1.1126
    22 C       54.8794  43.4739   0.3851   C.3       1 RES1   5.2474
    23 C       54.5522  44.9664   0.0998   C.3       1 RES1   0.8721
    24 C       55.7887  45.8884  -0.1745   C.3       1 RES1   0.0000
    25 C       55.4733  47.3545  -0.6065   C.3       1 RES1   0.0000
    26 C       54.2735  47.4746  -1.5857   C.3       1 RES1   0.0000
    27 C       53.6132  48.8788  -1.6008   C.3       1 RES1   0.0000
    28 C       54.4560  49.9243  -2.2970   C.2       1 RES1   0.0000
    29 O       55.6074  50.1099  -1.9385   O.2       1 RES1   0.0000
    30 C       53.8695  50.7597  -3.4054   C.3       1 RES1   0.0000
    31 O       54.6259  50.5610  -4.6054   O.3       1 RES1   0.0000
    32 O       53.5022  49.3218  -0.2397   O.3       1 RES1   0.0000
    33 C       54.6928  47.0992  -3.0399   C.3       1 RES1   0.0000
    34 O       57.0983  45.3884  -0.5012   O.3       1 RES1   0.0000
    35 C       55.3691  42.7201  -0.8768   C.3       1 RES1   3.6960
    36 C       50.9984  42.6159   0.7321   C.3       1 RES1  33.5582
    37 H1      50.9816  49.3116  -0.4876   H         1 RES1   0.0000
    38 H2      50.1272  49.2706  -2.0571   H         1 RES1   0.0000
    39 H3      51.3261  50.5571  -1.7354   H         1 RES1   0.0000
    40 H4      52.1574  48.7330  -3.2650   H         1 RES1   0.0000
    41 H5      51.8741  46.5218  -2.8249   H         1 RES1   0.0000
    42 H6      50.9469  46.9661  -1.3571   H         1 RES1   0.0000
    43 H7      52.8784  47.0036  -0.0014   H         1 RES1   0.0000
    44 H8      53.6640  44.7650  -1.9356   H         1 RES1   0.0000
    45 H9      51.2283  44.7048  -0.8221   H         1 RES1   0.0000
    46 H10     52.7262  41.1187   1.8663   H         1 RES1   0.0000
    47 H11     58.1377  41.5206   2.6290   H         1 RES1   0.0000
    48 H12     53.3798  39.2570   0.9941   H         1 RES1   0.0000
    49 H13     51.7640  37.4271   1.4327   H         1 RES1   0.0000
    50 H14     51.8523  36.1827   3.5764   H         1 RES1   0.0000
    51 H15     53.5571  36.7671   5.2803   H         1 RES1   0.0000
    52 H16     55.1771  38.5935   4.8380   H         1 RES1   0.0000
    53 H17     55.7734  44.0857   2.2956   H         1 RES1   0.0000
    54 H18     56.9949  43.6607   1.0529   H         1 RES1   0.0000
    55 H19     54.1476  45.3456   1.0509   H         1 RES1   0.0000
    56 H20     55.7007  45.5289  -1.2004   H         1 RES1   0.0000
    57 H21     55.2477  47.8814   0.3313   H         1 RES1   0.0000
    58 H22     56.3652  47.8201  -1.0523   H         1 RES1   0.0000
    59 H23     53.8452  51.8273  -3.1463   H         1 RES1   0.0000
    60 H24     52.8363  50.4254  -3.5856   H         1 RES1   0.0000
    61 H25     54.1285  50.0499  -5.2340   H         1 RES1   0.0000
    62 H26     52.8602  50.0160  -0.1465   H         1 RES1   0.0000
    63 H27     53.8646  47.2326  -3.7465   H         1 RES1   0.0000
    64 H28     55.0453  46.0676  -3.1587   H         1 RES1   0.0000
    65 H29     55.5149  47.7612  -3.3485   H         1 RES1   0.0000
    66 H30     57.1556  45.2195  -1.4350   H         1 RES1   0.0000
    67 H31     54.5789  42.6878  -1.6400   H         1 RES1   0.0000
    68 H32     56.2624  43.1955  -1.3050   H         1 RES1   0.0000
    69 H33     55.6230  41.6843  -0.6075   H         1 RES1   0.0000
    70 H34     50.9171  42.6027   1.8292   H         1 RES1   0.0000
    71 H35     50.1126  43.1322   0.3341   H         1 RES1   0.0000
    72 H36     50.9907  41.5841   0.3504   H         1 RES1   0.0000
    73 ****    57.0952  39.2717   3.3174   Du        1 RES1   0.0000
    74 ****    55.9900  49.5720  -1.1873   Du        1 RES1   0.0000
    75 ****    56.1684  50.8000  -2.3958   Du        1 RES1   0.0000
    76 ****    55.4721  50.0762  -4.3840   Du        1 RES1   0.0000
    77 ****    54.8463  51.4503  -5.0060   Du        1 RES1   0.0000
    78 ****    54.3924  49.6611   0.0641   Du        1 RES1   0.0000
    79 ****    53.2278  48.5481   0.3314   Du        1 RES1   0.0000
    80 ****    57.2639  44.5393   0.0003   Du        1 RES1   0.0000
    81 ****    57.7862  46.0671  -0.2439   Du        1 RES1   0.0000
@<TRIPOS>BOND
     1     1     2    1
     2     2     3    1
     3     3     4    1
     4     4     5    1
     5     5     6    1
     6     6     7    2
     7     7     8    1
     8     8     9    2
     9     9    10    1
    10    10    11   ar
    11    11    12   ar
    12    12    13   ar
    13    13    14   ar
    14    10    14   ar
    15    14    15    1
    16    15    16   ar
    17    16    17   ar
    18    17    18   ar
    19    18    19   ar
    20    19    20   ar
    21    15    20   ar
    22    11    21    1
    23    21    22    1
    24     8    22    1
    25    22    23    1
    26     5    23    1
    27    23    24    1
    28    24    25    1
    29    25    26    1
    30     4    26    1
    31    26    27    1
    32     2    27    1
    33    27    28    1
    34    28    29    2
    35    28    30    1
    36    30    31    1
    37    27    32    1
    38    26    33    1
    39    24    34    1
    40    22    35    1
    41     7    36    1
    42     1    37    1
    43     1    38    1
    44     1    39    1
    45     2    40    1
    46     3    41    1
    47     3    42    1
    48     4    43    1
    49     5    44    1
    50     6    45    1
    51     9    46    1
    52    12    47    1
    53    16    48    1
    54    17    49    1
    55    18    50    1
    56    19    51    1
    57    20    52    1
    58    21    53    1
    59    21    54    1
    60    23    55    1
    61    24    56    1
    62    25    57    1
    63    25    58    1
    64    30    59    1
    65    30    60    1
    66    31    61    1
    67    32    62    1
    68    33    63    1
    69    33    64    1
    70    33    65    1
    71    34    66    1
    72    35    67    1
    73    35    68    1
    74    35    69    1
    75    36    70    1
    76    36    71    1
    77    36    72    1
    78    13    73    1
    79    29    74    1
    80    29    75    1
    81    31    76    1
    82    31    77    1
    83    32    78    1
    84    32    79    1
    85    34    80    1
    86    34    81    1
@<TRIPOS>SUBSTRUCTURE
     1 RES1        1 GROUP             0 ****  ****    0  
@<TRIPOS>MOLECULE
1.79543653589
    81    86     1     0     0
SMALL
USER_CHARGES
****
Generated from the CSD

@<TRIPOS>ATOM
     1 C       51.2141  52.8317  -2.7793   C.3       1 RES1   0.0000
     2 C       52.2420  51.9257  -3.4966   C.3       1 RES1   0.0000
     3 C       51.9085  50.4251  -3.2719   C.3       1 RES1   0.0000
     4 C       53.1306  49.8869  -2.5014   C.3       1 RES1   0.0000
     5 C       53.3830  48.3602  -2.5122   C.3       1 RES1   0.0000
     6 C       52.1759  47.6140  -2.0206   C.2       1 RES1   0.0000
     7 C       52.2546  46.4990  -1.2848   C.2       1 RES1   0.0000
     8 C       53.5605  45.9040  -0.9147   C.2       1 RES1   0.0000
     9 C       53.5815  44.7680  -0.2000   C.2       1 RES1   2.2596
    10 C       54.9235  44.2156   0.1993   C.ar      1 RES1   3.4382
    11 C       56.0770  44.9646   0.1102   C.ar      1 RES1   0.0000
    12 C       57.0999  44.1197   0.5295   C.ar      1 RES1   0.0000
    13 N       56.5565  42.9293   0.8709   N.ar      1 RES1   0.0000
    14 N       55.2346  42.9998   0.6821   N.ar      1 RES1   6.2825
    15 C       54.3177  42.0252   0.9255   C.ar      1 RES1  10.1744
    16 C       54.6424  40.9534   1.7585   C.ar      1 RES1   8.2967
    17 C       53.6990  39.9569   2.0130   C.ar      1 RES1  13.5217
    18 C       52.4325  40.0304   1.4310   C.ar      1 RES1  32.8479
    19 C       52.1094  41.1001   0.5946   C.ar      1 RES1  34.0174
    20 C       53.0522  42.0976   0.3417   C.ar      1 RES1  15.3952
    21 C       56.0397  46.4037  -0.3665   C.3       1 RES1   0.0000
    22 C       54.8570  46.5695  -1.3680   C.3       1 RES1   0.0000
    23 C       54.5767  48.0868  -1.5559   C.3       1 RES1   0.0000
    24 C       55.8331  48.9736  -1.8544   C.3       1 RES1   0.0000
    25 C       55.5552  50.4720  -2.1906   C.3       1 RES1   0.0000
    26 C       54.3080  50.6914  -3.0900   C.3       1 RES1   0.0000
    27 C       53.7071  52.1188  -2.9935   C.3       1 RES1   0.0000
    28 C       54.5519  53.1670  -3.6831   C.2       1 RES1   0.0000
    29 O       55.6996  53.3569  -3.3150   O.2       1 RES1   0.0000
    30 C       53.9718  53.9999  -4.7967   C.3       1 RES1   0.0000
    31 O       54.6215  53.6688  -6.0297   O.3       1 RES1   0.0000
    32 O       53.6920  52.4915  -1.6071   O.3       1 RES1   0.0000
    33 C       54.6280  50.3792  -4.5838   C.3       1 RES1   0.0000
    34 O       57.1000  48.4418  -2.2831   O.3       1 RES1   0.0000
    35 C       55.2423  45.8666  -2.6939   C.3       1 RES1   0.0000
    36 C       50.9693  45.8448  -0.8382   C.3       1 RES1   3.0377
    37 H1      51.1632  52.5924  -1.7065   H         1 RES1   0.0000
    38 H2      50.2202  52.6694  -3.2230   H         1 RES1   0.0000
    39 H3      51.4881  53.8893  -2.9063   H         1 RES1   0.0000
    40 H4      52.1545  52.1197  -4.5746   H         1 RES1   0.0000
    41 H5      51.8044  49.9005  -4.2335   H         1 RES1   0.0000
    42 H6      50.9813  50.3004  -2.6927   H         1 RES1   0.0000
    43 H7      52.9864  50.1897  -1.4529   H         1 RES1   0.0000
    44 H8      53.5668  48.0302  -3.5432   H         1 RES1   0.0000
    45 H9      51.1978  48.0043  -2.2930   H         1 RES1   0.0000
    46 H10     52.6947  44.2228   0.1134   H         1 RES1   0.0000
    47 H11     58.1528  44.3730   0.5761   H         1 RES1   0.0000
    48 H12     55.6276  40.8952   2.2077   H         1 RES1   0.0000
    49 H13     53.9501  39.1257   2.6625   H         1 RES1   0.0000
    50 H14     51.6995  39.2560   1.6286   H         1 RES1   0.0000
    51 H15     51.1259  41.1562   0.1415   H         1 RES1   0.0000
    52 H16     52.8024  42.9291  -0.3077   H         1 RES1   0.0000
    53 H17     55.8826  47.0419   0.5157   H         1 RES1   0.0000
    54 H18     57.0128  46.6378  -0.8171   H         1 RES1   0.0000
    55 H19     54.2429  48.4293  -0.5643   H         1 RES1   0.0000
    56 H20     55.6722  48.6739  -2.8906   H         1 RES1   0.0000
    57 H21     55.4055  50.9558  -1.2152   H         1 RES1   0.0000
    58 H22     56.4391  50.9263  -2.6635   H         1 RES1   0.0000
    59 H23     54.0664  55.0763  -4.5968   H         1 RES1   0.0000
    60 H24     52.9018  53.7599  -4.8915   H         1 RES1   0.0000
    61 H25     55.5494  53.8703  -5.9838   H         1 RES1   0.0000
    62 H26     52.9737  53.0808  -1.4087   H         1 RES1   0.0000
    63 H27     53.7674  50.5826  -5.2326   H         1 RES1   0.0000
    64 H28     54.9298  49.3427  -4.7765   H         1 RES1   0.0000
    65 H29     55.4583  51.0247  -4.9056   H         1 RES1   0.0000
    66 H30     57.0736  47.4916  -2.2661   H         1 RES1   0.0000
    67 H31     54.4095  45.9063  -3.4099   H         1 RES1   0.0000
    68 H32     56.1290  46.3295  -3.1487   H         1 RES1   0.0000
    69 H33     55.4676  44.8087  -2.4940   H         1 RES1   0.0000
    70 H34     50.9500  45.7754   0.2597   H         1 RES1   0.0000
    71 H35     50.0848  46.4158  -1.1561   H         1 RES1   0.0000
    72 H36     50.8969  44.8363  -1.2716   H         1 RES1   0.0000
    73 ****    57.0579  42.1322   1.2073   Du        1 RES1   0.0000
    74 ****    56.0779  52.8206  -2.5604   Du        1 RES1   0.0000
    75 ****    56.2620  54.0488  -3.7678   Du        1 RES1   0.0000
    76 ****    54.2070  54.1961  -6.7714   Du        1 RES1   0.0000
    77 ****    54.5058  52.6920  -6.2101   Du        1 RES1   0.0000
    78 ****    54.5546  52.9458  -1.3845   Du        1 RES1   0.0000
    79 ****    53.5968  51.6660  -1.0509   Du        1 RES1   0.0000
    80 ****    57.8202  48.7647  -1.6691   Du        1 RES1   0.0000
    81 ****    57.2920  48.7517  -3.2142   Du        1 RES1   0.0000
@<TRIPOS>BOND
     1     1     2    1
     2     2     3    1
     3     3     4    1
     4     4     5    1
     5     5     6    1
     6     6     7    2
     7     7     8    1
     8     8     9    2
     9     9    10    1
    10    10    11   ar
    11    11    12   ar
    12    12    13   ar
    13    13    14   ar
    14    10    14   ar
    15    14    15    1
    16    15    16   ar
    17    16    17   ar
    18    17    18   ar
    19    18    19   ar
    20    19    20   ar
    21    15    20   ar
    22    11    21    1
    23    21    22    1
    24     8    22    1
    25    22    23    1
    26     5    23    1
    27    23    24    1
    28    24    25    1
    29    25    26    1
    30     4    26    1
    31    26    27    1
    32     2    27    1
    33    27    28    1
    34    28    29    2
    35    28    30    1
    36    30    31    1
    37    27    32    1
    38    26    33    1
    39    24    34    1
    40    22    35    1
    41     7    36    1
    42     1    37    1
    43     1    38    1
    44     1    39    1
    45     2    40    1
    46     3    41    1
    47     3    42    1
    48     4    43    1
    49     5    44    1
    50     6    45    1
    51     9    46    1
    52    12    47    1
    53    16    48    1
    54    17    49    1
    55    18    50    1
    56    19    51    1
    57    20    52    1
    58    21    53    1
    59    21    54    1
    60    23    55    1
    61    24    56    1
    62    25    57    1
    63    25    58    1
    64    30    59    1
    65    30    60    1
    66    31    61    1
    67    32    62    1
    68    33    63    1
    69    33    64    1
    70    33    65    1
    71    34    66    1
    72    35    67    1
    73    35    68    1
    74    35    69    1
    75    36    70    1
    76    36    71    1
    77    36    72    1
    78    13    73    1
    79    29    74    1
    80    29    75    1
    81    31    76    1
    82    31    77    1
    83    32    78    1
    84    32    79    1
    85    34    80    1
    86    34    81    1
@<TRIPOS>SUBSTRUCTURE
     1 RES1        1 GROUP             0 ****  ****    0  
@<TRIPOS>MOLECULE
0.0504620572798
    81    86     1     0     0
SMALL
USER_CHARGES
****
Generated from the CSD

@<TRIPOS>ATOM
     1 C       44.6870  48.5403  -4.7006   C.3       1 RES1   0.0000
     2 C       45.8840  48.0852  -5.5677   C.3       1 RES1   0.0000
     3 C       46.8927  47.2556  -4.7265   C.3       1 RES1   0.0000
     4 C       48.1831  48.0986  -4.7611   C.3       1 RES1   0.0000
     5 C       49.5227  47.3917  -4.4441   C.3       1 RES1   0.0000
     6 C       49.4656  46.7098  -3.1072   C.2       1 RES1   0.0000
     7 C       50.5120  46.6407  -2.2759   C.2       1 RES1   0.0000
     8 C       51.8262  47.2257  -2.6323   C.2       1 RES1   0.0000
     9 C       52.8506  47.1019  -1.7738   C.2       1 RES1   0.0000
    10 C       54.1584  47.7479  -2.1448   C.ar      1 RES1   0.0000
    11 C       54.2523  48.6750  -3.1602   C.ar      1 RES1   0.0000
    12 C       55.5998  49.0152  -3.2269   C.ar      1 RES1   0.0000
    13 N       56.2613  48.3263  -2.2694   N.ar      1 RES1   0.0000
    14 N       55.3783  47.5710  -1.6076   N.ar      1 RES1   0.0000
    15 C       55.6297  46.7447  -0.5570   C.ar      1 RES1   0.0000
    16 C       55.3374  45.3834  -0.6539   C.ar      1 RES1   0.0000
    17 C       55.6014  44.5348   0.4222   C.ar      1 RES1   0.3297
    18 C       56.1539  45.0486   1.5965   C.ar      1 RES1   0.0000
    19 C       56.4423  46.4108   1.6947   C.ar      1 RES1   0.0000
    20 C       56.1800  47.2590   0.6178   C.ar      1 RES1   0.0000
    21 C       53.0241  49.1150  -3.9332   C.3       1 RES1   0.0000
    22 C       52.0067  47.9347  -3.9716   C.3       1 RES1   0.0000
    23 C       50.6226  48.4888  -4.4111   C.3       1 RES1   0.0000
    24 C       50.6339  49.4016  -5.6841   C.3       1 RES1   0.0000
    25 C       49.2396  49.8469  -6.2257   C.3       1 RES1   0.0000
    26 C       48.1598  48.7319  -6.1676   C.3       1 RES1   0.0000
    27 C       46.7033  49.2669  -6.1756   C.3       1 RES1   0.0000
    28 C       46.2722  49.7966  -7.5253   C.2       1 RES1   0.0000
    29 O       46.8221  50.7806  -7.9925   O.2       1 RES1   0.0000
    30 C       45.1455  49.1367  -8.2772   C.3       1 RES1   0.0000
    31 O       45.5800  47.8633  -8.7688   O.3       1 RES1   0.0000
    32 O       46.6490  50.3938  -5.2877   O.3       1 RES1   0.0000
    33 C       48.3312  47.7192  -7.3409   C.3       1 RES1   0.0000
    34 O       51.7341  49.4639  -6.6100   O.3       1 RES1   0.0000
    35 C       52.5516  46.8564  -4.9416   C.3       1 RES1   0.0000
    36 C       50.3282  45.9388  -0.9519   C.3       1 RES1   3.3036
    37 H1      45.0327  49.1067  -3.8229   H         1 RES1   0.0000
    38 H2      44.1374  47.6529  -4.3519   H         1 RES1   0.0000
    39 H3      44.0050  49.1658  -5.2951   H         1 RES1   0.0000
    40 H4      45.4895  47.4211  -6.3490   H         1 RES1   0.0000
    41 H5      47.0688  46.2721  -5.1875   H         1 RES1   0.0000
    42 H6      46.5350  47.1103  -3.6962   H         1 RES1   0.0000
    43 H7      48.0459  48.8953  -4.0138   H         1 RES1   0.0000
    44 H8      49.7080  46.6121  -5.1948   H         1 RES1   0.0000
    45 H9      48.5253  46.2449  -2.8195   H         1 RES1   0.0000
    46 H10     52.7978  46.5703  -0.8268   H         1 RES1   0.0000
    47 H11     56.0437  49.7145  -3.9261   H         1 RES1   0.0000
    48 H12     54.9052  44.9854  -1.5653   H         1 RES1   0.0000
    49 H13     55.3772  43.4766   0.3460   H         1 RES1   0.0000
    50 H14     56.3590  44.3893   2.4327   H         1 RES1   0.0000
    51 H15     56.8702  46.8099   2.6076   H         1 RES1   0.0000
    52 H16     56.4036  48.3172   0.6929   H         1 RES1   0.0000
    53 H17     52.5884  49.9749  -3.4032   H         1 RES1   0.0000
    54 H18     53.3469  49.4291  -4.9341   H         1 RES1   0.0000
    55 H19     50.3304  49.1730  -3.5997   H         1 RES1   0.0000
    56 H20     50.5874  48.4611  -6.2343   H         1 RES1   0.0000
    57 H21     48.9451  50.6896  -5.5845   H         1 RES1   0.0000
    58 H22     49.3333  50.2204  -7.2567   H         1 RES1   0.0000
    59 H23     44.7854  49.7597  -9.1077   H         1 RES1   0.0000
    60 H24     44.3088  48.9740  -7.5807   H         1 RES1   0.0000
    61 H25     46.4056  47.9474  -9.2325   H         1 RES1   0.0000
    62 H26     45.9091  50.9581  -5.4797   H         1 RES1   0.0000
    63 H27     47.5406  46.9590  -7.3375   H         1 RES1   0.0000
    64 H28     49.2863  47.1804  -7.3397   H         1 RES1   0.0000
    65 H29     48.2704  48.2709  -8.2903   H         1 RES1   0.0000
    66 H30     52.1617  50.3107  -6.5468   H         1 RES1   0.0000
    67 H31     51.8933  45.9763  -4.9521   H         1 RES1   0.0000
    68 H32     52.6434  47.2481  -5.9640   H         1 RES1   0.0000
    69 H33     53.5468  46.5316  -4.6042   H         1 RES1   0.0000
    70 H34     50.5648  46.6300  -0.1293   H         1 RES1   0.0000
    71 H35     49.2953  45.5883  -0.8118   H         1 RES1   0.0000
    72 H36     50.9940  45.0645  -0.9005   H         1 RES1   0.0000
    73 ****    57.2435  48.3736  -2.0874   Du        1 RES1   0.0000
    74 ****    47.5542  51.2331  -7.4835   Du        1 RES1   0.0000
    75 ****    46.5406  51.1344  -8.8845   Du        1 RES1   0.0000
    76 ****    44.8886  47.4986  -9.3924   Du        1 RES1   0.0000
    77 ****    45.6980  47.2366  -7.9986   Du        1 RES1   0.0000
    78 ****    47.4926  50.9222  -5.3831   Du        1 RES1   0.0000
    79 ****    46.5679  50.0620  -4.3479   Du        1 RES1   0.0000
    80 ****    51.3923  49.3334  -7.5407   Du        1 RES1   0.0000
    81 ****    52.3921  48.7430  -6.3924   Du        1 RES1   0.0000
@<TRIPOS>BOND
     1     1     2    1
     2     2     3    1
     3     3     4    1
     4     4     5    1
     5     5     6    1
     6     6     7    2
     7     7     8    1
     8     8     9    2
     9     9    10    1
    10    10    11   ar
    11    11    12   ar
    12    12    13   ar
    13    13    14   ar
    14    10    14   ar
    15    14    15    1
    16    15    16   ar
    17    16    17   ar
    18    17    18   ar
    19    18    19   ar
    20    19    20   ar
    21    15    20   ar
    22    11    21    1
    23    21    22    1
    24     8    22    1
    25    22    23    1
    26     5    23    1
    27    23    24    1
    28    24    25    1
    29    25    26    1
    30     4    26    1
    31    26    27    1
    32     2    27    1
    33    27    28    1
    34    28    29    2
    35    28    30    1
    36    30    31    1
    37    27    32    1
    38    26    33    1
    39    24    34    1
    40    22    35    1
    41     7    36    1
    42     1    37    1
    43     1    38    1
    44     1    39    1
    45     2    40    1
    46     3    41    1
    47     3    42    1
    48     4    43    1
    49     5    44    1
    50     6    45    1
    51     9    46    1
    52    12    47    1
    53    16    48    1
    54    17    49    1
    55    18    50    1
    56    19    51    1
    57    20    52    1
    58    21    53    1
    59    21    54    1
    60    23    55    1
    61    24    56    1
    62    25    57    1
    63    25    58    1
    64    30    59    1
    65    30    60    1
    66    31    61    1
    67    32    62    1
    68    33    63    1
    69    33    64    1
    70    33    65    1
    71    34    66    1
    72    35    67    1
    73    35    68    1
    74    35    69    1
    75    36    70    1
    76    36    71    1
    77    36    72    1
    78    13    73    1
    79    29    74    1
    80    29    75    1
    81    31    76    1
    82    31    77    1
    83    32    78    1
    84    32    79    1
    85    34    80    1
    86    34    81    1
@<TRIPOS>SUBSTRUCTURE
     1 RES1        1 GROUP             0 ****  ****    0  
