@<TRIPOS>MOLECULE
fitting_pts
  2024     0     1     0     0
SMALL
USER_CHARGES
****
Generated from the CSD - Crystal connectivity not present

@<TRIPOS>ATOM
     1 20.25  100.5000  97.5000  80.5000   C.3       1 RES1  20.2500
     2 20.25  100.5000  97.5000  81.0000   C.3       1 RES1  20.2500
     3 20.25  100.5000  98.0000  80.5000   C.3       1 RES1  20.2500
     4 20.25  100.5000  98.0000  81.0000   C.3       1 RES1  20.2500
     5 20.25  100.5000  98.5000  80.5000   C.3       1 RES1  20.2500
     6 20.25  100.5000  98.5000  81.0000   C.3       1 RES1  20.2500
     7 20.25  101.0000  98.5000  80.5000   C.3       1 RES1  20.2500
     8 20.25  101.0000  98.5000  81.0000   C.3       1 RES1  20.2500
     9 26.38  102.5000 100.5000  80.0000   C.3       1 RES1  26.3750
    10 26.38  103.0000 100.5000  80.0000   C.3       1 RES1  26.3750
    11 26.38  103.5000 100.5000  80.0000   C.3       1 RES1  26.3750
    12 20.88   97.0000 100.0000  78.0000   C.3       1 RES1  20.8800
    13 20.88   97.0000 100.5000  78.0000   C.3       1 RES1  20.8800
    14 20.88   97.0000 101.0000  78.0000   C.3       1 RES1  20.8800
    15 20.88   97.0000 101.0000  78.5000   C.3       1 RES1  20.8800
    16 20.88   97.0000 101.0000  79.0000   C.3       1 RES1  20.8800
    17 24.10  102.0000 102.5000  82.0000   C.3       1 RES1  24.1030
    18 28.12  102.5000 100.5000  82.0000   C.3       1 RES1  28.1250
    19 19.46  100.5000  99.0000  77.0000   C.3       1 RES1  19.4600
    20 22.09  102.0000  98.5000  80.5000   C.3       1 RES1  22.0940
    21 22.09  102.0000  98.5000  81.0000   C.3       1 RES1  22.0940
    22 22.09  102.0000  98.5000  81.5000   C.3       1 RES1  22.0940
    23 20.95   98.0000 101.5000  79.0000   C.3       1 RES1  20.9480
    24 20.95   98.5000 101.5000  79.0000   C.3       1 RES1  20.9480
    25 20.95   99.0000 101.5000  79.0000   C.3       1 RES1  20.9480
    26 19.71   97.0000  97.5000  82.0000   C.3       1 RES1  19.7100
    27 19.71   97.0000  97.5000  82.5000   C.3       1 RES1  19.7100
    28 19.71   97.0000  97.5000  83.0000   C.3       1 RES1  19.7100
    29 19.71   97.5000  97.5000  83.0000   C.3       1 RES1  19.7100
    30 19.71   98.0000  97.5000  83.0000   C.3       1 RES1  19.7100
    31 20.62   98.5000  93.0000  81.0000   C.3       1 RES1  20.6200
    32 20.62   98.5000  93.0000  81.5000   C.3       1 RES1  20.6200
    33 20.62   98.5000  93.0000  82.0000   C.3       1 RES1  20.6200
    34 20.62   98.5000  93.5000  81.0000   C.3       1 RES1  20.6200
    35 20.62   98.5000  93.5000  81.5000   C.3       1 RES1  20.6200
    36 20.62   98.5000  93.5000  82.0000   C.3       1 RES1  20.6200
    37 20.62   98.5000  94.0000  81.0000   C.3       1 RES1  20.6200
    38 20.62   98.5000  94.0000  81.5000   C.3       1 RES1  20.6200
    39 20.62   98.5000  94.0000  82.0000   C.3       1 RES1  20.6200
    40 20.96   99.0000  99.5000  78.0000   C.3       1 RES1  20.9580
    41 20.96   99.0000  99.5000  78.5000   C.3       1 RES1  20.9580
    42 20.96   99.0000  99.5000  79.0000   C.3       1 RES1  20.9580
    43 20.29   98.5000  99.0000  81.5000   C.3       1 RES1  20.2920
    44 27.13  104.0000  99.5000  81.5000   C.3       1 RES1  27.1270
    45 27.13  104.0000  99.5000  82.0000   C.3       1 RES1  27.1270
    46 27.13  104.0000  99.5000  82.5000   C.3       1 RES1  27.1270
    47 19.87  105.0000  99.0000  80.5000   C.3       1 RES1  19.8720
    48 31.87  102.5000 101.0000  80.5000   C.3       1 RES1  31.8690
    49 31.87  102.5000 101.0000  81.0000   C.3       1 RES1  31.8690
    50 31.87  102.5000 101.0000  81.5000   C.3       1 RES1  31.8690
    51 31.87  102.5000 101.5000  80.5000   C.3       1 RES1  31.8690
    52 31.87  102.5000 101.5000  81.0000   C.3       1 RES1  31.8690
    53 31.87  102.5000 101.5000  81.5000   C.3       1 RES1  31.8690
    54 31.87  102.5000 102.0000  80.5000   C.3       1 RES1  31.8690
    55 31.87  102.5000 102.0000  81.0000   C.3       1 RES1  31.8690
    56 31.87  102.5000 102.0000  81.5000   C.3       1 RES1  31.8690
    57 19.53  104.5000  98.0000  81.0000   C.3       1 RES1  19.5340
    58 19.53  104.5000  98.0000  81.5000   C.3       1 RES1  19.5340
    59 19.53  104.5000  98.0000  82.0000   C.3       1 RES1  19.5340
    60 26.71  104.0000 101.0000  79.5000   C.3       1 RES1  26.7070
    61 24.15  104.0000 101.0000  78.5000   C.3       1 RES1  24.1500
    62 25.79  102.0000 100.5000  82.0000   C.3       1 RES1  25.7870
    63 27.12  104.0000  99.5000  81.0000   C.3       1 RES1  27.1180
    64 27.12  104.5000  99.5000  81.0000   C.3       1 RES1  27.1180
    65 27.12  105.0000  99.5000  81.0000   C.3       1 RES1  27.1180
    66 20.23   96.0000 100.5000  80.0000   C.3       1 RES1  20.2250
    67 20.96  101.5000 103.0000  79.5000   C.3       1 RES1  20.9590
    68 22.87   99.5000 100.5000  77.5000   C.3       1 RES1  22.8670
    69 22.87   99.5000 100.5000  78.0000   C.3       1 RES1  22.8670
    70 22.87   99.5000 100.5000  78.5000   C.3       1 RES1  22.8670
    71 22.87   99.5000 101.0000  77.5000   C.3       1 RES1  22.8670
    72 22.87   99.5000 101.0000  78.0000   C.3       1 RES1  22.8670
    73 22.87   99.5000 101.0000  78.5000   C.3       1 RES1  22.8670
    74 22.87   99.5000 101.5000  77.5000   C.3       1 RES1  22.8670
    75 22.87   99.5000 101.5000  78.0000   C.3       1 RES1  22.8670
    76 22.87   99.5000 101.5000  78.5000   C.3       1 RES1  22.8670
    77 22.87  100.0000 100.5000  78.0000   C.3       1 RES1  22.8670
    78 22.87  100.0000 100.5000  78.5000   C.3       1 RES1  22.8670
    79 22.87  100.0000 101.0000  78.0000   C.3       1 RES1  22.8670
    80 22.87  100.0000 101.0000  78.5000   C.3       1 RES1  22.8670
    81 22.87  100.0000 101.5000  77.5000   C.3       1 RES1  22.8670
    82 22.87  100.0000 101.5000  78.0000   C.3       1 RES1  22.8670
    83 22.87  100.0000 101.5000  78.5000   C.3       1 RES1  22.8670
    84 22.87  100.5000 100.5000  78.5000   C.3       1 RES1  22.8670
    85 22.87  100.5000 101.0000  78.5000   C.3       1 RES1  22.8670
    86 22.87  100.5000 101.5000  78.5000   C.3       1 RES1  22.8670
    87 19.53  105.0000 100.5000  79.0000   C.3       1 RES1  19.5290
    88 21.22  103.0000 100.0000  78.0000   C.3       1 RES1  21.2240
    89 21.22  103.0000 100.0000  78.5000   C.3       1 RES1  21.2240
    90 21.22  103.0000 100.0000  79.0000   C.3       1 RES1  21.2240
    91 21.22  103.5000 100.0000  78.0000   C.3       1 RES1  21.2240
    92 21.22  103.5000 100.0000  78.5000   C.3       1 RES1  21.2240
    93 21.22  103.5000 100.0000  79.0000   C.3       1 RES1  21.2240
    94 30.17  103.0000 103.0000  81.5000   C.3       1 RES1  30.1700
    95 30.17  103.5000 103.0000  81.5000   C.3       1 RES1  30.1700
    96 30.17  104.0000 103.0000  81.5000   C.3       1 RES1  30.1700
    97 21.22  100.5000 100.0000  78.5000   C.3       1 RES1  21.2150
    98 25.95  102.0000 103.0000  80.0000   C.3       1 RES1  25.9540
    99 24.63  106.5000 101.0000  81.5000   C.3       1 RES1  24.6300
   100 24.63  106.5000 101.5000  81.5000   C.3       1 RES1  24.6300
   101 24.63  106.5000 102.0000  81.5000   C.3       1 RES1  24.6300
   102 26.00  104.0000 100.5000  80.0000   C.3       1 RES1  26.0010
   103 22.08   98.0000 100.0000  79.0000   C.3       1 RES1  22.0810
   104 22.08   98.0000 100.5000  79.0000   C.3       1 RES1  22.0810
   105 22.08   98.0000 101.0000  79.0000   C.3       1 RES1  22.0810
   106 22.08   98.5000 100.0000  79.0000   C.3       1 RES1  22.0810
   107 22.08   98.5000 100.5000  79.0000   C.3       1 RES1  22.0810
   108 22.08   98.5000 101.0000  79.0000   C.3       1 RES1  22.0810
   109 22.08   99.0000 100.0000  79.0000   C.3       1 RES1  22.0810
   110 22.08   99.0000 100.5000  79.0000   C.3       1 RES1  22.0810
   111 22.08   99.0000 101.0000  79.0000   C.3       1 RES1  22.0810
   112 20.02  103.0000 103.0000  82.5000   C.3       1 RES1  20.0180
   113 20.02  103.5000 103.0000  82.5000   C.3       1 RES1  20.0180
   114 20.02  104.0000 103.0000  82.5000   C.3       1 RES1  20.0180
   115 28.78  104.0000 101.0000  80.0000   C.3       1 RES1  28.7800
   116 22.19  102.0000  99.0000  80.0000   C.3       1 RES1  22.1870
   117 22.19  102.0000  99.5000  80.0000   C.3       1 RES1  22.1870
   118 24.18  105.0000 102.0000  82.0000   C.3       1 RES1  24.1800
   119 20.17   97.0000 100.0000  81.5000   C.3       1 RES1  20.1680
   120 20.17   97.0000 100.0000  82.0000   C.3       1 RES1  20.1680
   121 20.17   97.0000 100.0000  82.5000   C.3       1 RES1  20.1680
   122 20.17   97.5000 100.0000  81.5000   C.3       1 RES1  20.1680
   123 20.17   97.5000 100.0000  82.0000   C.3       1 RES1  20.1680
   124 20.17   97.5000 100.0000  82.5000   C.3       1 RES1  20.1680
   125 20.17   98.0000 100.0000  81.5000   C.3       1 RES1  20.1680
   126 20.17   98.0000 100.0000  82.0000   C.3       1 RES1  20.1680
   127 20.17   98.0000 100.0000  82.5000   C.3       1 RES1  20.1680
   128 21.52  100.0000 100.0000  80.0000   C.3       1 RES1  21.5210
   129 21.52  100.0000 100.0000  80.5000   C.3       1 RES1  21.5210
   130 21.52  100.0000 100.0000  81.0000   C.3       1 RES1  21.5210
   131 21.52  100.0000 100.5000  80.0000   C.3       1 RES1  21.5210
   132 21.52  100.0000 100.5000  80.5000   C.3       1 RES1  21.5210
   133 21.52  100.0000 100.5000  81.0000   C.3       1 RES1  21.5210
   134 21.52  100.0000 101.0000  80.0000   C.3       1 RES1  21.5210
   135 21.52  100.0000 101.0000  80.5000   C.3       1 RES1  21.5210
   136 21.52  100.0000 101.0000  81.0000   C.3       1 RES1  21.5210
   137 21.52  100.5000 100.0000  80.0000   C.3       1 RES1  21.5210
   138 21.52  100.5000 100.0000  80.5000   C.3       1 RES1  21.5210
   139 21.52  100.5000 100.0000  81.0000   C.3       1 RES1  21.5210
   140 21.52  100.5000 100.5000  80.0000   C.3       1 RES1  21.5210
   141 21.52  100.5000 100.5000  80.5000   C.3       1 RES1  21.5210
   142 21.52  100.5000 100.5000  81.0000   C.3       1 RES1  21.5210
   143 21.52  100.5000 101.0000  80.0000   C.3       1 RES1  21.5210
   144 21.52  100.5000 101.0000  80.5000   C.3       1 RES1  21.5210
   145 21.52  100.5000 101.0000  81.0000   C.3       1 RES1  21.5210
   146 21.52  101.0000 100.0000  80.0000   C.3       1 RES1  21.5210
   147 21.52  101.0000 100.0000  80.5000   C.3       1 RES1  21.5210
   148 21.52  101.0000 100.0000  81.0000   C.3       1 RES1  21.5210
   149 30.27  104.0000 100.0000  81.5000   C.3       1 RES1  30.2670
   150 30.27  104.0000 100.0000  82.0000   C.3       1 RES1  30.2670
   151 30.27  104.0000 100.0000  82.5000   C.3       1 RES1  30.2670
   152 30.27  104.0000 100.5000  81.5000   C.3       1 RES1  30.2670
   153 30.27  104.0000 100.5000  82.0000   C.3       1 RES1  30.2670
   154 30.27  104.0000 100.5000  82.5000   C.3       1 RES1  30.2670
   155 30.27  104.0000 101.0000  82.0000   C.3       1 RES1  30.2670
   156 30.27  104.0000 101.0000  82.5000   C.3       1 RES1  30.2670
   157 20.96  104.0000 100.0000  79.5000   C.3       1 RES1  20.9610
   158 31.26  104.0000 101.5000  80.0000   C.3       1 RES1  31.2620
   159 31.26  104.0000 102.0000  80.0000   C.3       1 RES1  31.2620
   160 31.26  104.0000 102.5000  80.0000   C.3       1 RES1  31.2620
   161 20.93  100.5000 103.0000  78.0000   C.3       1 RES1  20.9270
   162 23.24  105.5000 100.0000  80.5000   C.3       1 RES1  23.2430
   163 21.46  101.0000 102.0000  80.5000   C.3       1 RES1  21.4600
   164 21.46  101.0000 102.0000  81.0000   C.3       1 RES1  21.4600
   165 21.46  101.0000 102.0000  81.5000   C.3       1 RES1  21.4600
   166 21.59  102.5000 100.5000  77.5000   C.3       1 RES1  21.5860
   167 21.59  102.5000 101.0000  77.5000   C.3       1 RES1  21.5860
   168 21.59  103.0000 100.0000  77.5000   C.3       1 RES1  21.5860
   169 21.59  103.0000 100.5000  77.5000   C.3       1 RES1  21.5860
   170 21.59  103.0000 101.0000  77.5000   C.3       1 RES1  21.5860
   171 20.68   95.5000  92.0000  81.5000   C.3       1 RES1  20.6760
   172 20.68   95.5000  92.5000  81.5000   C.3       1 RES1  20.6760
   173 20.68   95.5000  93.0000  81.5000   C.3       1 RES1  20.6760
   174 20.68   96.0000  92.0000  81.5000   C.3       1 RES1  20.6760
   175 20.68   96.0000  92.5000  81.5000   C.3       1 RES1  20.6760
   176 20.68   96.0000  93.0000  81.5000   C.3       1 RES1  20.6760
   177 20.68   96.5000  92.0000  81.5000   C.3       1 RES1  20.6760
   178 20.68   96.5000  92.5000  81.5000   C.3       1 RES1  20.6760
   179 20.68   96.5000  93.0000  81.5000   C.3       1 RES1  20.6760
   180 22.84  102.5000 101.0000  78.0000   C.3       1 RES1  22.8380
   181 20.58  102.5000  98.5000  82.0000   C.3       1 RES1  20.5770
   182 24.66  105.5000 100.5000  80.5000   C.3       1 RES1  24.6580
   183 24.66  106.0000 100.5000  80.5000   C.3       1 RES1  24.6580
   184 19.83   97.0000  97.5000  80.5000   C.3       1 RES1  19.8300
   185 19.83   97.5000  97.5000  80.5000   C.3       1 RES1  19.8300
   186 19.83   98.0000  96.5000  80.5000   C.3       1 RES1  19.8300
   187 19.83   98.0000  97.0000  80.5000   C.3       1 RES1  19.8300
   188 19.83   98.0000  97.5000  80.5000   C.3       1 RES1  19.8300
   189 28.93  103.5000 100.0000  81.0000   C.3       1 RES1  28.9270
   190 28.93  103.5000 100.0000  81.5000   C.3       1 RES1  28.9270
   191 28.93  103.5000 100.0000  82.0000   C.3       1 RES1  28.9270
   192 28.93  104.0000 100.0000  81.0000   C.3       1 RES1  28.9270
   193 28.93  104.5000 100.0000  81.0000   C.3       1 RES1  28.9270
   194 25.34  104.0000  99.0000  80.5000   C.3       1 RES1  25.3360
   195 25.34  104.0000  99.0000  81.0000   C.3       1 RES1  25.3360
   196 25.34  104.0000  99.0000  81.5000   C.3       1 RES1  25.3360
   197 22.25  101.0000 100.5000  80.0000   C.3       1 RES1  22.2470
   198 22.25  101.0000 101.0000  80.0000   C.3       1 RES1  22.2470
   199 22.25  101.0000 101.5000  80.0000   C.3       1 RES1  22.2470
   200 20.58  100.0000  99.0000  81.5000   C.3       1 RES1  20.5750
   201 20.58  100.0000  99.5000  81.5000   C.3       1 RES1  20.5750
   202 22.92  105.0000 102.0000  82.5000   C.3       1 RES1  22.9160
   203 24.65  105.0000 100.0000  80.5000   C.3       1 RES1  24.6490
   204 22.37  103.0000  98.5000  80.5000   C.3       1 RES1  22.3720
   205 22.37  103.0000  98.5000  81.0000   C.3       1 RES1  22.3720
   206 22.37  103.0000  98.5000  81.5000   C.3       1 RES1  22.3720
   207 22.37  103.5000  98.5000  80.5000   C.3       1 RES1  22.3720
   208 22.37  103.5000  98.5000  81.0000   C.3       1 RES1  22.3720
   209 22.37  103.5000  98.5000  81.5000   C.3       1 RES1  22.3720
   210 22.37  104.0000  98.5000  80.5000   C.3       1 RES1  22.3720
   211 22.37  104.0000  98.5000  81.0000   C.3       1 RES1  22.3720
   212 22.37  104.0000  98.5000  81.5000   C.3       1 RES1  22.3720
   213 20.01   95.0000  91.0000  84.5000   C.3       1 RES1  20.0080
   214 20.01   95.0000  91.5000  83.5000   C.3       1 RES1  20.0080
   215 20.01   95.0000  91.5000  84.0000   C.3       1 RES1  20.0080
   216 20.01   95.0000  91.5000  84.5000   C.3       1 RES1  20.0080
   217 20.01   95.0000  92.0000  83.5000   C.3       1 RES1  20.0080
   218 20.01   95.0000  92.0000  84.0000   C.3       1 RES1  20.0080
   219 20.01   95.0000  92.0000  84.5000   C.3       1 RES1  20.0080
   220 20.01   95.5000  91.5000  83.5000   C.3       1 RES1  20.0080
   221 20.01   95.5000  91.5000  84.0000   C.3       1 RES1  20.0080
   222 20.01   95.5000  92.0000  83.5000   C.3       1 RES1  20.0080
   223 20.01   95.5000  92.0000  84.0000   C.3       1 RES1  20.0080
   224 20.01   96.0000  91.0000  83.5000   C.3       1 RES1  20.0080
   225 20.01   96.0000  91.5000  83.5000   C.3       1 RES1  20.0080
   226 20.01   96.0000  92.0000  83.5000   C.3       1 RES1  20.0080
   227 19.83   96.0000  94.5000  80.5000   C.3       1 RES1  19.8270
   228 19.83   96.0000  94.5000  81.0000   C.3       1 RES1  19.8270
   229 19.83   96.0000  94.5000  81.5000   C.3       1 RES1  19.8270
   230 19.83   96.0000  95.0000  80.5000   C.3       1 RES1  19.8270
   231 19.83   96.0000  95.0000  81.0000   C.3       1 RES1  19.8270
   232 19.83   96.0000  95.0000  81.5000   C.3       1 RES1  19.8270
   233 19.83   96.0000  95.5000  80.5000   C.3       1 RES1  19.8270
   234 19.83   96.0000  95.5000  81.0000   C.3       1 RES1  19.8270
   235 19.83   96.0000  95.5000  81.5000   C.3       1 RES1  19.8270
   236 19.83   96.5000  94.5000  80.5000   C.3       1 RES1  19.8270
   237 19.83   96.5000  94.5000  81.0000   C.3       1 RES1  19.8270
   238 19.83   96.5000  94.5000  81.5000   C.3       1 RES1  19.8270
   239 19.83   96.5000  95.0000  80.5000   C.3       1 RES1  19.8270
   240 19.83   96.5000  95.0000  81.0000   C.3       1 RES1  19.8270
   241 19.83   96.5000  95.0000  81.5000   C.3       1 RES1  19.8270
   242 19.83   96.5000  95.5000  80.5000   C.3       1 RES1  19.8270
   243 19.83   96.5000  95.5000  81.0000   C.3       1 RES1  19.8270
   244 19.83   96.5000  95.5000  81.5000   C.3       1 RES1  19.8270
   245 19.83   97.0000  94.5000  80.5000   C.3       1 RES1  19.8270
   246 19.83   97.0000  94.5000  81.0000   C.3       1 RES1  19.8270
   247 19.83   97.0000  94.5000  81.5000   C.3       1 RES1  19.8270
   248 19.83   97.0000  95.0000  80.5000   C.3       1 RES1  19.8270
   249 19.83   97.0000  95.0000  81.0000   C.3       1 RES1  19.8270
   250 19.83   97.0000  95.0000  81.5000   C.3       1 RES1  19.8270
   251 19.83   97.0000  95.5000  80.5000   C.3       1 RES1  19.8270
   252 19.83   97.0000  95.5000  81.0000   C.3       1 RES1  19.8270
   253 19.83   97.0000  95.5000  81.5000   C.3       1 RES1  19.8270
   254 26.63  105.5000 101.0000  80.5000   C.3       1 RES1  26.6280
   255 26.63  105.5000 102.0000  81.0000   C.3       1 RES1  26.6280
   256 26.63  106.0000 101.0000  80.5000   C.3       1 RES1  26.6280
   257 26.63  106.0000 101.0000  81.0000   C.3       1 RES1  26.6280
   258 26.63  106.0000 101.5000  81.0000   C.3       1 RES1  26.6280
   259 26.63  106.0000 102.0000  81.0000   C.3       1 RES1  26.6280
   260 26.63  106.5000 101.0000  80.0000   C.3       1 RES1  26.6280
   261 26.63  106.5000 101.0000  80.5000   C.3       1 RES1  26.6280
   262 26.63  106.5000 101.0000  81.0000   C.3       1 RES1  26.6280
   263 26.63  106.5000 101.5000  81.0000   C.3       1 RES1  26.6280
   264 26.63  106.5000 102.0000  81.0000   C.3       1 RES1  26.6280
   265 25.75  102.5000 103.5000  80.0000   C.3       1 RES1  25.7450
   266 25.75  102.5000 103.5000  80.5000   C.3       1 RES1  25.7450
   267 25.75  102.5000 103.5000  81.0000   C.3       1 RES1  25.7450
   268 19.58   97.5000  99.0000  80.0000   C.3       1 RES1  19.5820
   269 19.58   97.5000  99.0000  80.5000   C.3       1 RES1  19.5820
   270 20.96  101.0000 100.5000  82.0000   C.3       1 RES1  20.9570
   271 20.96  101.0000 101.0000  82.0000   C.3       1 RES1  20.9570
   272 20.96  101.0000 101.5000  82.0000   C.3       1 RES1  20.9570
   273 21.12  102.5000  99.0000  77.0000   C.3       1 RES1  21.1170
   274 21.12  102.5000  99.5000  77.0000   C.3       1 RES1  21.1170
   275 20.90  105.5000  99.0000  81.0000   C.3       1 RES1  20.9010
   276 20.90  105.5000  99.0000  81.5000   C.3       1 RES1  20.9010
   277 20.90  105.5000  99.0000  82.0000   C.3       1 RES1  20.9010
   278 19.81   99.0000  96.0000  82.5000   C.3       1 RES1  19.8080
   279 21.83  102.5000  99.5000  79.5000   C.3       1 RES1  21.8250
   280 21.83  102.5000 100.0000  79.5000   C.3       1 RES1  21.8250
   281 21.83  103.0000  99.5000  79.5000   C.3       1 RES1  21.8250
   282 21.83  103.0000 100.0000  79.5000   C.3       1 RES1  21.8250
   283 21.83  103.5000  99.5000  79.5000   C.3       1 RES1  21.8250
   284 21.83  103.5000 100.0000  79.5000   C.3       1 RES1  21.8250
   285 21.04  103.0000  99.5000  82.5000   C.3       1 RES1  21.0390
   286 20.82  100.5000 101.5000  80.0000   C.3       1 RES1  20.8230
   287 22.00   99.5000 100.0000  79.0000   C.3       1 RES1  22.0000
   288 22.00   99.5000 100.5000  79.0000   C.3       1 RES1  22.0000
   289 22.00   99.5000 101.0000  79.0000   C.3       1 RES1  22.0000
   290 19.55   96.5000  97.5000  79.0000   C.3       1 RES1  19.5450
   291 20.19  102.5000 104.0000  76.5000   C.3       1 RES1  20.1890
   292 20.16  100.5000 103.5000  78.0000   C.3       1 RES1  20.1590
   293 22.95  100.5000 101.5000  78.0000   C.3       1 RES1  22.9480
   294 22.95  100.5000 102.0000  78.0000   C.3       1 RES1  22.9480
   295 22.95  100.5000 102.5000  78.0000   C.3       1 RES1  22.9480
   296 22.07  102.5000 100.5000  78.0000   C.3       1 RES1  22.0650
   297 20.33   96.0000  92.5000  84.0000   C.3       1 RES1  20.3310
   298 20.33   96.0000  93.0000  84.0000   C.3       1 RES1  20.3310
   299 20.33   96.0000  93.5000  84.0000   C.3       1 RES1  20.3310
   300 20.33   96.0000  93.5000  84.5000   C.3       1 RES1  20.3310
   301 20.33   96.0000  93.5000  85.0000   C.3       1 RES1  20.3310
   302 20.33   96.5000  92.5000  84.0000   C.3       1 RES1  20.3310
   303 20.33   96.5000  93.0000  84.0000   C.3       1 RES1  20.3310
   304 20.33   96.5000  93.5000  84.0000   C.3       1 RES1  20.3310
   305 20.33   96.5000  93.5000  84.5000   C.3       1 RES1  20.3310
   306 20.33   96.5000  93.5000  85.0000   C.3       1 RES1  20.3310
   307 20.33   97.0000  92.5000  84.0000   C.3       1 RES1  20.3310
   308 20.33   97.0000  93.0000  84.0000   C.3       1 RES1  20.3310
   309 20.33   97.0000  93.0000  84.5000   C.3       1 RES1  20.3310
   310 20.33   97.0000  93.0000  85.0000   C.3       1 RES1  20.3310
   311 20.33   97.0000  93.5000  84.0000   C.3       1 RES1  20.3310
   312 20.33   97.0000  93.5000  84.5000   C.3       1 RES1  20.3310
   313 20.33   97.0000  93.5000  85.0000   C.3       1 RES1  20.3310
   314 23.76  103.0000 102.5000  82.5000   C.3       1 RES1  23.7630
   315 23.76  103.5000 102.5000  82.5000   C.3       1 RES1  23.7630
   316 23.76  104.0000 102.5000  82.5000   C.3       1 RES1  23.7630
   317 21.90  105.0000 100.5000  80.0000   C.3       1 RES1  21.8960
   318 23.65  106.5000 102.5000  81.0000   C.3       1 RES1  23.6450
   319 26.31  106.0000 101.5000  81.5000   C.3       1 RES1  26.3070
   320 26.31  106.0000 101.5000  82.0000   C.3       1 RES1  26.3070
   321 22.75   99.5000 100.5000  77.0000   C.3       1 RES1  22.7540
   322 22.75   99.5000 101.0000  77.0000   C.3       1 RES1  22.7540
   323 22.75   99.5000 101.5000  77.0000   C.3       1 RES1  22.7540
   324 22.75  100.0000 101.5000  77.0000   C.3       1 RES1  22.7540
   325 22.48  104.0000 100.5000  79.0000   C.3       1 RES1  22.4760
   326 22.70  101.0000 100.5000  80.5000   C.3       1 RES1  22.7010
   327 22.70  101.0000 100.5000  81.0000   C.3       1 RES1  22.7010
   328 22.70  101.0000 100.5000  81.5000   C.3       1 RES1  22.7010
   329 22.70  101.0000 101.0000  80.5000   C.3       1 RES1  22.7010
   330 22.70  101.0000 101.0000  81.0000   C.3       1 RES1  22.7010
   331 22.70  101.0000 101.0000  81.5000   C.3       1 RES1  22.7010
   332 22.70  101.0000 101.5000  80.5000   C.3       1 RES1  22.7010
   333 22.70  101.0000 101.5000  81.0000   C.3       1 RES1  22.7010
   334 22.70  101.0000 101.5000  81.5000   C.3       1 RES1  22.7010
   335 21.00  101.0000 104.0000  76.5000   C.3       1 RES1  20.9980
   336 21.00  101.0000 104.0000  77.0000   C.3       1 RES1  20.9980
   337 21.00  101.0000 104.0000  77.5000   C.3       1 RES1  20.9980
   338 21.00  101.5000 104.0000  76.5000   C.3       1 RES1  20.9980
   339 21.00  102.0000 104.0000  76.5000   C.3       1 RES1  20.9980
   340 27.71  102.0000 101.5000  78.5000   C.3       1 RES1  27.7060
   341 21.97  103.5000 100.0000  83.0000   C.3       1 RES1  21.9670
   342 20.69   98.0000  97.5000  81.5000   C.3       1 RES1  20.6940
   343 20.69   98.0000  97.5000  82.0000   C.3       1 RES1  20.6940
   344 20.69   98.0000  97.5000  82.5000   C.3       1 RES1  20.6940
   345 20.69   98.5000  98.5000  81.5000   C.3       1 RES1  20.6940
   346 20.69   98.5000  98.5000  82.0000   C.3       1 RES1  20.6940
   347 20.69   98.5000  98.5000  82.5000   C.3       1 RES1  20.6940
   348 20.69   99.0000  98.5000  81.5000   C.3       1 RES1  20.6940
   349 20.69   99.0000  98.5000  82.0000   C.3       1 RES1  20.6940
   350 20.69   99.0000  98.5000  82.5000   C.3       1 RES1  20.6940
   351 20.22  102.0000  98.0000  81.5000   C.3       1 RES1  20.2160
   352 22.62  102.0000  99.0000  82.0000   C.3       1 RES1  22.6180
   353 30.93  103.0000 103.0000  80.0000   C.3       1 RES1  30.9350
   354 30.93  103.0000 103.0000  80.5000   C.3       1 RES1  30.9350
   355 30.93  103.0000 103.0000  81.0000   C.3       1 RES1  30.9350
   356 30.93  103.5000 103.0000  80.0000   C.3       1 RES1  30.9350
   357 30.93  103.5000 103.0000  80.5000   C.3       1 RES1  30.9350
   358 30.93  103.5000 103.0000  81.0000   C.3       1 RES1  30.9350
   359 30.93  104.0000 103.0000  80.0000   C.3       1 RES1  30.9350
   360 30.93  104.0000 103.0000  80.5000   C.3       1 RES1  30.9350
   361 30.93  104.0000 103.0000  81.0000   C.3       1 RES1  30.9350
   362 20.26   96.0000  93.5000  82.0000   C.3       1 RES1  20.2590
   363 20.26   96.0000  93.5000  82.5000   C.3       1 RES1  20.2590
   364 20.26   96.0000  93.5000  83.0000   C.3       1 RES1  20.2590
   365 20.26   96.5000  93.5000  82.0000   C.3       1 RES1  20.2590
   366 20.26   96.5000  93.5000  82.5000   C.3       1 RES1  20.2590
   367 20.26   96.5000  93.5000  83.0000   C.3       1 RES1  20.2590
   368 20.26   97.0000  92.5000  82.0000   C.3       1 RES1  20.2590
   369 20.26   97.0000  92.5000  82.5000   C.3       1 RES1  20.2590
   370 20.26   97.0000  92.5000  83.0000   C.3       1 RES1  20.2590
   371 20.26   97.0000  93.0000  82.0000   C.3       1 RES1  20.2590
   372 20.26   97.0000  93.0000  82.5000   C.3       1 RES1  20.2590
   373 20.26   97.0000  93.0000  83.0000   C.3       1 RES1  20.2590
   374 20.26   97.0000  93.5000  82.0000   C.3       1 RES1  20.2590
   375 20.26   97.0000  93.5000  82.5000   C.3       1 RES1  20.2590
   376 20.26   97.0000  93.5000  83.0000   C.3       1 RES1  20.2590
   377 20.86   96.5000  99.5000  83.0000   C.3       1 RES1  20.8630
   378 19.54  104.5000 100.0000  83.5000   C.3       1 RES1  19.5360
   379 19.54  105.0000 100.0000  83.5000   C.3       1 RES1  19.5360
   380 19.54  105.5000 100.0000  83.5000   C.3       1 RES1  19.5360
   381 22.46  102.5000 103.5000  76.5000   C.3       1 RES1  22.4560
   382 25.88  104.5000 101.5000  83.0000   C.3       1 RES1  25.8750
   383 25.88  105.0000 101.5000  83.0000   C.3       1 RES1  25.8750
   384 25.88  105.5000 101.5000  83.0000   C.3       1 RES1  25.8750
   385 21.70  103.5000  98.5000  82.0000   C.3       1 RES1  21.7050
   386 21.70  104.0000  98.5000  82.0000   C.3       1 RES1  21.7050
   387 21.70  104.5000  98.5000  82.0000   C.3       1 RES1  21.7050
   388 22.87  105.0000  99.0000  81.0000   C.3       1 RES1  22.8740
   389 22.87  105.0000  99.0000  81.5000   C.3       1 RES1  22.8740
   390 22.87  105.0000  99.0000  82.0000   C.3       1 RES1  22.8740
   391 29.12  102.5000 103.0000  81.5000   C.3       1 RES1  29.1160
   392 21.78  104.5000 100.5000  79.5000   C.3       1 RES1  21.7850
   393 19.53  102.0000 103.5000  81.5000   C.3       1 RES1  19.5300
   394 20.62   99.5000 101.5000  79.0000   C.3       1 RES1  20.6160
   395 23.20  101.5000 101.5000  79.5000   C.3       1 RES1  23.2020
   396 23.20  101.5000 102.0000  79.5000   C.3       1 RES1  23.2020
   397 23.20  101.5000 102.5000  79.5000   C.3       1 RES1  23.2020
   398 32.37  103.0000 101.5000  80.5000   C.3       1 RES1  32.3700
   399 32.37  103.0000 101.5000  81.0000   C.3       1 RES1  32.3700
   400 32.37  103.0000 101.5000  81.5000   C.3       1 RES1  32.3700
   401 32.37  103.0000 102.0000  80.5000   C.3       1 RES1  32.3700
   402 32.37  103.0000 102.0000  81.0000   C.3       1 RES1  32.3700
   403 32.37  103.0000 102.0000  81.5000   C.3       1 RES1  32.3700
   404 32.37  103.0000 102.5000  80.5000   C.3       1 RES1  32.3700
   405 32.37  103.0000 102.5000  81.0000   C.3       1 RES1  32.3700
   406 32.37  103.0000 102.5000  81.5000   C.3       1 RES1  32.3700
   407 32.37  103.5000 101.5000  80.5000   C.3       1 RES1  32.3700
   408 32.37  103.5000 101.5000  81.0000   C.3       1 RES1  32.3700
   409 32.37  103.5000 101.5000  81.5000   C.3       1 RES1  32.3700
   410 32.37  103.5000 102.0000  80.5000   C.3       1 RES1  32.3700
   411 32.37  103.5000 102.0000  81.0000   C.3       1 RES1  32.3700
   412 32.37  103.5000 102.0000  81.5000   C.3       1 RES1  32.3700
   413 32.37  103.5000 102.5000  80.5000   C.3       1 RES1  32.3700
   414 32.37  103.5000 102.5000  81.0000   C.3       1 RES1  32.3700
   415 32.37  103.5000 102.5000  81.5000   C.3       1 RES1  32.3700
   416 32.37  104.0000 101.5000  80.5000   C.3       1 RES1  32.3700
   417 32.37  104.0000 101.5000  81.0000   C.3       1 RES1  32.3700
   418 32.37  104.0000 101.5000  81.5000   C.3       1 RES1  32.3700
   419 32.37  104.0000 102.0000  80.5000   C.3       1 RES1  32.3700
   420 32.37  104.0000 102.0000  81.0000   C.3       1 RES1  32.3700
   421 32.37  104.0000 102.0000  81.5000   C.3       1 RES1  32.3700
   422 32.37  104.0000 102.5000  80.5000   C.3       1 RES1  32.3700
   423 32.37  104.0000 102.5000  81.0000   C.3       1 RES1  32.3700
   424 32.37  104.0000 102.5000  81.5000   C.3       1 RES1  32.3700
   425 20.76  103.0000 104.0000  81.5000   C.3       1 RES1  20.7570
   426 20.76  103.5000 104.0000  81.5000   C.3       1 RES1  20.7570
   427 20.76  104.0000 104.0000  81.5000   C.3       1 RES1  20.7570
   428 21.81   97.0000  99.5000  83.0000   C.3       1 RES1  21.8060
   429 21.81   97.5000  99.5000  83.0000   C.3       1 RES1  21.8060
   430 21.81   98.0000  99.5000  82.0000   C.3       1 RES1  21.8060
   431 21.81   98.0000  99.5000  82.5000   C.3       1 RES1  21.8060
   432 21.81   98.0000  99.5000  83.0000   C.3       1 RES1  21.8060
   433 19.84   98.5000  96.5000  81.0000   C.3       1 RES1  19.8370
   434 19.84   99.0000  96.5000  81.0000   C.3       1 RES1  19.8370
   435 19.84   99.5000  96.5000  81.0000   C.3       1 RES1  19.8370
   436 19.84   99.5000  96.5000  81.5000   C.3       1 RES1  19.8370
   437 19.84   99.5000  96.5000  82.0000   C.3       1 RES1  19.8370
   438 21.94  104.5000 103.5000  81.5000   C.3       1 RES1  21.9450
   439 22.93  102.5000 100.5000  79.0000   C.3       1 RES1  22.9290
   440 22.93  103.0000 100.5000  79.0000   C.3       1 RES1  22.9290
   441 22.93  103.5000 100.5000  79.0000   C.3       1 RES1  22.9290
   442 19.70   96.0000  99.0000  78.5000   C.3       1 RES1  19.6970
   443 19.70  102.0000 102.0000  82.5000   C.3       1 RES1  19.6970
   444 19.49  101.5000  99.5000  76.0000   C.3       1 RES1  19.4940
   445 19.49  102.0000  99.5000  76.0000   C.3       1 RES1  19.4940
   446 19.49  102.5000  99.5000  76.0000   C.3       1 RES1  19.4940
   447 19.81  105.0000 102.0000  83.0000   C.3       1 RES1  19.8100
   448 26.27  104.0000 100.0000  83.0000   C.3       1 RES1  26.2740
   449 26.27  104.0000 100.5000  83.0000   C.3       1 RES1  26.2740
   450 26.27  104.0000 101.0000  83.0000   C.3       1 RES1  26.2740
   451 22.62  101.5000 100.0000  80.0000   C.3       1 RES1  22.6210
   452 22.62  101.5000 100.0000  80.5000   C.3       1 RES1  22.6210
   453 22.62  101.5000 100.0000  81.0000   C.3       1 RES1  22.6210
   454 22.62  102.0000 100.0000  80.0000   C.3       1 RES1  22.6210
   455 19.60   96.5000  97.5000  79.5000   C.3       1 RES1  19.6050
   456 19.60   96.5000  97.5000  80.0000   C.3       1 RES1  19.6050
   457 19.60   96.5000  97.5000  80.5000   C.3       1 RES1  19.6050
   458 19.60   96.5000 100.0000  82.0000   C.3       1 RES1  19.6050
   459 19.60   97.5000 100.0000  81.0000   C.3       1 RES1  19.6050
   460 21.86   99.0000  93.0000  81.0000   C.3       1 RES1  21.8640
   461 21.86   99.0000  93.0000  81.5000   C.3       1 RES1  21.8640
   462 21.86   99.0000  93.0000  82.0000   C.3       1 RES1  21.8640
   463 21.86   99.0000  93.5000  81.0000   C.3       1 RES1  21.8640
   464 21.86   99.0000  93.5000  81.5000   C.3       1 RES1  21.8640
   465 21.86   99.0000  93.5000  82.0000   C.3       1 RES1  21.8640
   466 21.86   99.0000  94.0000  81.0000   C.3       1 RES1  21.8640
   467 21.86   99.0000  94.0000  81.5000   C.3       1 RES1  21.8640
   468 21.86   99.0000  94.0000  82.0000   C.3       1 RES1  21.8640
   469 21.86   99.5000  93.0000  81.0000   C.3       1 RES1  21.8640
   470 21.86   99.5000  93.0000  81.5000   C.3       1 RES1  21.8640
   471 21.86   99.5000  93.0000  82.0000   C.3       1 RES1  21.8640
   472 21.86   99.5000  93.5000  81.0000   C.3       1 RES1  21.8640
   473 21.86   99.5000  93.5000  81.5000   C.3       1 RES1  21.8640
   474 21.86   99.5000  93.5000  82.0000   C.3       1 RES1  21.8640
   475 21.86   99.5000  94.0000  81.0000   C.3       1 RES1  21.8640
   476 21.86   99.5000  94.0000  81.5000   C.3       1 RES1  21.8640
   477 21.86   99.5000  94.0000  82.0000   C.3       1 RES1  21.8640
   478 21.86  100.0000  93.0000  81.0000   C.3       1 RES1  21.8640
   479 21.86  100.0000  93.0000  81.5000   C.3       1 RES1  21.8640
   480 21.86  100.0000  93.0000  82.0000   C.3       1 RES1  21.8640
   481 21.86  100.0000  93.5000  81.0000   C.3       1 RES1  21.8640
   482 21.86  100.0000  93.5000  81.5000   C.3       1 RES1  21.8640
   483 21.86  100.0000  93.5000  82.0000   C.3       1 RES1  21.8640
   484 21.86  100.0000  94.0000  81.0000   C.3       1 RES1  21.8640
   485 21.86  100.0000  94.0000  81.5000   C.3       1 RES1  21.8640
   486 21.86  100.0000  94.0000  82.0000   C.3       1 RES1  21.8640
   487 22.24  102.5000  98.5000  80.5000   C.3       1 RES1  22.2370
   488 22.24  102.5000  98.5000  81.0000   C.3       1 RES1  22.2370
   489 22.24  102.5000  98.5000  81.5000   C.3       1 RES1  22.2370
   490 20.35  101.0000 102.0000  80.0000   C.3       1 RES1  20.3520
   491 23.54  101.0000  98.5000  77.5000   C.3       1 RES1  23.5360
   492 23.54  101.0000  99.0000  77.5000   C.3       1 RES1  23.5360
   493 23.54  101.0000  99.5000  77.5000   C.3       1 RES1  23.5360
   494 23.54  101.5000  98.5000  77.5000   C.3       1 RES1  23.5360
   495 23.54  101.5000  99.0000  77.5000   C.3       1 RES1  23.5360
   496 23.54  101.5000  99.5000  77.5000   C.3       1 RES1  23.5360
   497 23.54  102.0000  98.5000  77.5000   C.3       1 RES1  23.5360
   498 23.54  102.0000  99.0000  77.5000   C.3       1 RES1  23.5360
   499 23.54  102.0000  99.5000  77.5000   C.3       1 RES1  23.5360
   500 22.43  101.5000 100.0000  81.5000   C.3       1 RES1  22.4340
   501 25.76  102.5000  99.5000  80.5000   C.3       1 RES1  25.7650
   502 25.76  102.5000  99.5000  81.0000   C.3       1 RES1  25.7650
   503 25.76  102.5000  99.5000  81.5000   C.3       1 RES1  25.7650
   504 25.76  102.5000 100.0000  80.5000   C.3       1 RES1  25.7650
   505 25.76  102.5000 100.0000  81.0000   C.3       1 RES1  25.7650
   506 25.76  102.5000 100.0000  81.5000   C.3       1 RES1  25.7650
   507 19.81   96.0000  99.0000  79.0000   C.3       1 RES1  19.8110
   508 20.03   97.0000  96.5000  79.0000   C.3       1 RES1  20.0310
   509 20.03   97.0000  97.0000  79.0000   C.3       1 RES1  20.0310
   510 20.03   97.0000  97.5000  79.0000   C.3       1 RES1  20.0310
   511 20.03   97.0000  97.5000  79.5000   C.3       1 RES1  20.0310
   512 20.03   97.0000  97.5000  80.0000   C.3       1 RES1  20.0310
   513 20.03   97.5000  96.5000  79.0000   C.3       1 RES1  20.0310
   514 20.03   97.5000  97.0000  79.0000   C.3       1 RES1  20.0310
   515 20.03   97.5000  97.5000  79.0000   C.3       1 RES1  20.0310
   516 20.03   97.5000  97.5000  79.5000   C.3       1 RES1  20.0310
   517 20.03   97.5000  97.5000  80.0000   C.3       1 RES1  20.0310
   518 20.03   98.0000  96.5000  79.0000   C.3       1 RES1  20.0310
   519 20.03   98.0000  96.5000  79.5000   C.3       1 RES1  20.0310
   520 20.03   98.0000  96.5000  80.0000   C.3       1 RES1  20.0310
   521 20.03   98.0000  97.0000  79.0000   C.3       1 RES1  20.0310
   522 20.03   98.0000  97.0000  79.5000   C.3       1 RES1  20.0310
   523 20.03   98.0000  97.0000  80.0000   C.3       1 RES1  20.0310
   524 20.03   98.0000  97.5000  79.0000   C.3       1 RES1  20.0310
   525 20.03   98.0000  97.5000  79.5000   C.3       1 RES1  20.0310
   526 20.03   98.0000  97.5000  80.0000   C.3       1 RES1  20.0310
   527 19.59   98.0000  99.5000  80.5000   C.3       1 RES1  19.5940
   528 19.59   98.0000 100.0000  80.5000   C.3       1 RES1  19.5940
   529 19.59   98.0000 100.5000  80.5000   C.3       1 RES1  19.5940
   530 20.83   97.5000 101.0000  79.5000   C.3       1 RES1  20.8280
   531 20.83   98.0000 101.0000  79.5000   C.3       1 RES1  20.8280
   532 20.83   98.5000 100.0000  79.5000   C.3       1 RES1  20.8280
   533 20.83   98.5000 100.5000  79.5000   C.3       1 RES1  20.8280
   534 20.83   98.5000 101.0000  79.5000   C.3       1 RES1  20.8280
   535 27.98  104.5000 102.0000  82.0000   C.3       1 RES1  27.9830
   536 19.92   96.5000  99.0000  78.5000   C.3       1 RES1  19.9240
   537 19.92   96.5000  99.0000  79.0000   C.3       1 RES1  19.9240
   538 19.92   97.0000  99.0000  78.5000   C.3       1 RES1  19.9240
   539 19.92   97.0000  99.0000  79.0000   C.3       1 RES1  19.9240
   540 19.92   97.5000  99.0000  78.5000   C.3       1 RES1  19.9240
   541 19.92   97.5000  99.0000  79.0000   C.3       1 RES1  19.9240
   542 19.92   97.5000  99.0000  79.5000   C.3       1 RES1  19.9240
   543 20.57  101.0000 104.0000  78.0000   C.3       1 RES1  20.5650
   544 28.50  102.0000 101.5000  80.0000   C.3       1 RES1  28.5050
   545 28.50  102.0000 101.5000  80.5000   C.3       1 RES1  28.5050
   546 28.50  102.0000 101.5000  81.0000   C.3       1 RES1  28.5050
   547 28.50  102.0000 102.0000  80.0000   C.3       1 RES1  28.5050
   548 28.50  102.0000 102.0000  80.5000   C.3       1 RES1  28.5050
   549 28.50  102.0000 102.0000  81.0000   C.3       1 RES1  28.5050
   550 28.50  102.0000 102.5000  80.0000   C.3       1 RES1  28.5050
   551 28.50  102.0000 102.5000  80.5000   C.3       1 RES1  28.5050
   552 28.50  102.0000 102.5000  81.0000   C.3       1 RES1  28.5050
   553 22.42  102.5000 103.5000  82.0000   C.3       1 RES1  22.4230
   554 22.42  103.0000 103.5000  82.0000   C.3       1 RES1  22.4230
   555 22.42  103.5000 103.5000  82.0000   C.3       1 RES1  22.4230
   556 26.08  104.5000 100.0000  80.5000   C.3       1 RES1  26.0850
   557 21.45  101.5000 102.5000  80.0000   C.3       1 RES1  21.4480
   558 20.85  104.5000 102.5000  82.5000   C.3       1 RES1  20.8520
   559 19.50  105.0000 102.5000  82.0000   C.3       1 RES1  19.5030
   560 20.73  102.0000  97.5000  80.5000   C.3       1 RES1  20.7330
   561 20.73  102.0000  97.5000  81.0000   C.3       1 RES1  20.7330
   562 20.73  102.0000  98.0000  80.5000   C.3       1 RES1  20.7330
   563 20.73  102.0000  98.0000  81.0000   C.3       1 RES1  20.7330
   564 22.24  100.0000 102.0000  77.0000   C.3       1 RES1  22.2440
   565 22.24  100.0000 102.0000  77.5000   C.3       1 RES1  22.2440
   566 22.24  100.0000 102.0000  78.0000   C.3       1 RES1  22.2440
   567 20.19  104.5000 104.0000  81.0000   C.3       1 RES1  20.1930
   568 21.36  100.0000 100.5000  79.0000   C.3       1 RES1  21.3650
   569 21.36  100.0000 101.0000  79.0000   C.3       1 RES1  21.3650
   570 21.36  100.0000 101.5000  79.0000   C.3       1 RES1  21.3650
   571 21.36  103.5000 100.5000  76.5000   C.3       1 RES1  21.3650
   572 21.36  103.5000 100.5000  77.0000   C.3       1 RES1  21.3650
   573 21.36  103.5000 100.5000  77.5000   C.3       1 RES1  21.3650
   574 21.36  103.5000 101.0000  76.5000   C.3       1 RES1  21.3650
   575 21.36  103.5000 101.0000  77.0000   C.3       1 RES1  21.3650
   576 21.36  103.5000 101.0000  77.5000   C.3       1 RES1  21.3650
   577 21.36  103.5000 101.5000  76.5000   C.3       1 RES1  21.3650
   578 21.36  103.5000 101.5000  77.0000   C.3       1 RES1  21.3650
   579 23.83  101.0000 102.0000  77.0000   C.3       1 RES1  23.8320
   580 23.83  101.0000 102.0000  77.5000   C.3       1 RES1  23.8320
   581 23.83  101.0000 102.0000  78.0000   C.3       1 RES1  23.8320
   582 23.83  101.0000 102.5000  77.0000   C.3       1 RES1  23.8320
   583 23.83  101.0000 102.5000  77.5000   C.3       1 RES1  23.8320
   584 23.83  101.0000 102.5000  78.0000   C.3       1 RES1  23.8320
   585 23.83  101.0000 103.0000  77.0000   C.3       1 RES1  23.8320
   586 23.83  101.0000 103.0000  77.5000   C.3       1 RES1  23.8320
   587 23.83  101.0000 103.0000  78.0000   C.3       1 RES1  23.8320
   588 20.55  102.0000 103.5000  80.0000   C.3       1 RES1  20.5480
   589 22.74  102.0000 103.5000  79.5000   C.3       1 RES1  22.7430
   590 26.16  103.0000 100.0000  80.5000   C.3       1 RES1  26.1640
   591 26.16  103.5000 100.0000  80.5000   C.3       1 RES1  26.1640
   592 26.16  104.0000 100.0000  80.5000   C.3       1 RES1  26.1640
   593 20.41   98.5000  99.5000  82.0000   C.3       1 RES1  20.4070
   594 20.41   98.5000  99.5000  82.5000   C.3       1 RES1  20.4070
   595 20.41   98.5000  99.5000  83.0000   C.3       1 RES1  20.4070
   596 19.57   98.5000  95.0000  81.0000   C.3       1 RES1  19.5720
   597 19.57   98.5000  95.0000  81.5000   C.3       1 RES1  19.5720
   598 19.57   98.5000  95.0000  82.0000   C.3       1 RES1  19.5720
   599 19.57   98.5000  95.5000  81.0000   C.3       1 RES1  19.5720
   600 19.57   98.5000  95.5000  81.5000   C.3       1 RES1  19.5720
   601 19.57   98.5000  95.5000  82.0000   C.3       1 RES1  19.5720
   602 19.57   98.5000  96.0000  81.0000   C.3       1 RES1  19.5720
   603 19.57  100.0000 101.5000  81.5000   C.3       1 RES1  19.5720
   604 19.99   99.5000  99.0000  82.0000   C.3       1 RES1  19.9880
   605 19.99   99.5000  99.0000  82.5000   C.3       1 RES1  19.9880
   606 19.99   99.5000  99.0000  83.0000   C.3       1 RES1  19.9880
   607 19.99   99.5000  99.5000  82.0000   C.3       1 RES1  19.9880
   608 19.99   99.5000  99.5000  82.5000   C.3       1 RES1  19.9880
   609 19.99   99.5000  99.5000  83.0000   C.3       1 RES1  19.9880
   610 19.99   99.5000 100.0000  82.0000   C.3       1 RES1  19.9880
   611 19.99   99.5000 100.0000  82.5000   C.3       1 RES1  19.9880
   612 19.99   99.5000 100.0000  83.0000   C.3       1 RES1  19.9880
   613 22.74  106.0000  99.5000  81.0000   C.3       1 RES1  22.7440
   614 19.48   96.0000  94.5000  80.0000   C.3       1 RES1  19.4830
   615 19.48   96.0000  95.0000  80.0000   C.3       1 RES1  19.4830
   616 19.48   96.0000  95.5000  80.0000   C.3       1 RES1  19.4830
   617 19.48   96.5000  94.5000  80.0000   C.3       1 RES1  19.4830
   618 19.48   96.5000  95.0000  80.0000   C.3       1 RES1  19.4830
   619 19.48   96.5000  95.5000  80.0000   C.3       1 RES1  19.4830
   620 19.48   97.0000  94.5000  80.0000   C.3       1 RES1  19.4830
   621 19.48   97.0000  95.0000  80.0000   C.3       1 RES1  19.4830
   622 19.48   97.0000  95.5000  80.0000   C.3       1 RES1  19.4830
   623 19.85  103.5000  96.5000  80.0000   C.3       1 RES1  19.8540
   624 19.85  103.5000  96.5000  80.5000   C.3       1 RES1  19.8540
   625 19.85  103.5000  96.5000  81.0000   C.3       1 RES1  19.8540
   626 20.82   98.5000  97.0000  82.5000   C.3       1 RES1  20.8240
   627 20.82   98.5000  97.5000  82.5000   C.3       1 RES1  20.8240
   628 20.82   98.5000  98.0000  82.5000   C.3       1 RES1  20.8240
   629 20.82   99.0000  97.0000  82.5000   C.3       1 RES1  20.8240
   630 20.82   99.0000  97.5000  82.5000   C.3       1 RES1  20.8240
   631 20.82   99.0000  98.0000  82.5000   C.3       1 RES1  20.8240
   632 20.82   99.5000  97.0000  82.5000   C.3       1 RES1  20.8240
   633 20.82   99.5000  97.5000  82.5000   C.3       1 RES1  20.8240
   634 20.82   99.5000  98.0000  82.5000   C.3       1 RES1  20.8240
   635 22.31  101.0000 103.5000  78.0000   C.3       1 RES1  22.3090
   636 19.50   97.0000 100.5000  81.0000   C.3       1 RES1  19.4950
   637 19.50   98.0000  99.5000  81.0000   C.3       1 RES1  19.4950
   638 22.14  102.5000 101.5000  77.0000   C.3       1 RES1  22.1400
   639 20.19  102.0000  96.5000  80.0000   C.3       1 RES1  20.1940
   640 20.19  102.0000  96.5000  80.5000   C.3       1 RES1  20.1940
   641 20.19  102.0000  96.5000  81.0000   C.3       1 RES1  20.1940
   642 20.19  102.5000  96.5000  80.0000   C.3       1 RES1  20.1940
   643 20.19  102.5000  96.5000  80.5000   C.3       1 RES1  20.1940
   644 20.19  102.5000  96.5000  81.0000   C.3       1 RES1  20.1940
   645 20.19  103.0000  96.5000  80.0000   C.3       1 RES1  20.1940
   646 20.19  103.0000  96.5000  80.5000   C.3       1 RES1  20.1940
   647 20.19  103.0000  96.5000  81.0000   C.3       1 RES1  20.1940
   648 20.22  100.0000 100.5000  82.0000   C.3       1 RES1  20.2230
   649 20.22  100.0000 101.0000  82.0000   C.3       1 RES1  20.2230
   650 20.22  100.5000 100.5000  82.0000   C.3       1 RES1  20.2230
   651 20.22  100.5000 101.0000  82.0000   C.3       1 RES1  20.2230
   652 21.62  100.5000 100.5000  79.0000   C.3       1 RES1  21.6160
   653 21.62  100.5000 101.0000  79.0000   C.3       1 RES1  21.6160
   654 21.62  100.5000 101.5000  79.0000   C.3       1 RES1  21.6160
   655 21.62  101.0000 101.5000  79.0000   C.3       1 RES1  21.6160
   656 21.28  104.5000 100.0000  80.0000   C.3       1 RES1  21.2850
   657 19.83  103.0000  98.5000  79.5000   C.3       1 RES1  19.8260
   658 19.83  103.5000  98.5000  80.0000   C.3       1 RES1  19.8260
   659 27.97  102.0000 101.0000  80.5000   C.3       1 RES1  27.9720
   660 27.97  102.0000 101.0000  81.0000   C.3       1 RES1  27.9720
   661 27.97  102.0000 101.0000  81.5000   C.3       1 RES1  27.9720
   662 27.97  102.0000 101.5000  81.5000   C.3       1 RES1  27.9720
   663 27.97  102.0000 102.0000  81.5000   C.3       1 RES1  27.9720
   664 20.53   98.5000  98.0000  83.0000   C.3       1 RES1  20.5260
   665 20.53   98.5000  98.5000  83.0000   C.3       1 RES1  20.5260
   666 20.53   98.5000  99.0000  82.0000   C.3       1 RES1  20.5260
   667 20.53   98.5000  99.0000  82.5000   C.3       1 RES1  20.5260
   668 20.53   98.5000  99.0000  83.0000   C.3       1 RES1  20.5260
   669 21.72  104.5000  98.5000  80.5000   C.3       1 RES1  21.7210
   670 21.72  104.5000  98.5000  81.0000   C.3       1 RES1  21.7210
   671 21.72  104.5000  98.5000  81.5000   C.3       1 RES1  21.7210
   672 25.61  102.5000 103.0000  82.0000   C.3       1 RES1  25.6110
   673 20.30   99.0000  96.5000  81.5000   C.3       1 RES1  20.3010
   674 20.30   99.0000  96.5000  82.0000   C.3       1 RES1  20.3010
   675 20.30   99.0000  96.5000  82.5000   C.3       1 RES1  20.3010
   676 19.60  103.0000  97.0000  79.5000   C.3       1 RES1  19.6000
   677 19.60  103.0000  97.5000  79.5000   C.3       1 RES1  19.6000
   678 19.60  103.0000  98.0000  79.5000   C.3       1 RES1  19.6000
   679 19.60  103.5000  97.0000  79.5000   C.3       1 RES1  19.6000
   680 19.60  103.5000  97.5000  79.5000   C.3       1 RES1  19.6000
   681 19.60  103.5000  98.0000  79.5000   C.3       1 RES1  19.6000
   682 25.62  103.0000 103.0000  82.0000   C.3       1 RES1  25.6230
   683 25.62  103.5000 103.0000  82.0000   C.3       1 RES1  25.6230
   684 25.62  104.0000 103.0000  82.0000   C.3       1 RES1  25.6230
   685 21.21   99.0000 100.5000  77.0000   C.3       1 RES1  21.2120
   686 21.21   99.0000 101.0000  77.0000   C.3       1 RES1  21.2120
   687 21.21   99.0000 101.5000  77.0000   C.3       1 RES1  21.2120
   688 21.73   98.5000 101.5000  77.5000   C.3       1 RES1  21.7310
   689 21.73   98.5000 101.5000  78.0000   C.3       1 RES1  21.7310
   690 21.73   98.5000 101.5000  78.5000   C.3       1 RES1  21.7310
   691 21.73   99.0000 101.5000  77.5000   C.3       1 RES1  21.7310
   692 21.73   99.0000 101.5000  78.0000   C.3       1 RES1  21.7310
   693 21.73   99.0000 101.5000  78.5000   C.3       1 RES1  21.7310
   694 25.80  103.0000  99.5000  80.5000   C.3       1 RES1  25.8020
   695 25.80  103.0000  99.5000  81.0000   C.3       1 RES1  25.8020
   696 25.80  103.0000  99.5000  81.5000   C.3       1 RES1  25.8020
   697 25.80  103.5000  99.5000  80.5000   C.3       1 RES1  25.8020
   698 25.80  104.0000  99.5000  80.5000   C.3       1 RES1  25.8020
   699 19.53  100.5000  97.5000  81.5000   C.3       1 RES1  19.5280
   700 19.53  100.5000  98.0000  81.5000   C.3       1 RES1  19.5280
   701 19.53  100.5000  98.5000  81.5000   C.3       1 RES1  19.5280
   702 19.53  101.0000  97.5000  81.5000   C.3       1 RES1  19.5280
   703 19.53  101.0000  98.0000  81.5000   C.3       1 RES1  19.5280
   704 19.53  101.0000  98.5000  81.5000   C.3       1 RES1  19.5280
   705 19.53  101.0000  99.0000  81.0000   C.3       1 RES1  19.5280
   706 19.53  101.5000  97.5000  81.5000   C.3       1 RES1  19.5280
   707 19.46   96.0000  92.5000  83.5000   C.3       1 RES1  19.4610
   708 19.46   96.0000  93.0000  83.5000   C.3       1 RES1  19.4610
   709 19.46   96.0000  93.5000  83.5000   C.3       1 RES1  19.4610
   710 19.46   96.5000  92.5000  83.5000   C.3       1 RES1  19.4610
   711 19.46   96.5000  93.0000  83.5000   C.3       1 RES1  19.4610
   712 19.46   96.5000  93.5000  83.5000   C.3       1 RES1  19.4610
   713 19.46   97.0000  92.5000  83.5000   C.3       1 RES1  19.4610
   714 19.46   97.0000  93.0000  83.5000   C.3       1 RES1  19.4610
   715 19.46   97.0000  93.5000  83.5000   C.3       1 RES1  19.4610
   716 23.16  104.5000  99.0000  82.0000   C.3       1 RES1  23.1620
   717 19.67   98.5000  94.5000  81.0000   C.3       1 RES1  19.6650
   718 19.67   98.5000  94.5000  81.5000   C.3       1 RES1  19.6650
   719 19.67   98.5000  94.5000  82.0000   C.3       1 RES1  19.6650
   720 21.87  101.5000 100.0000  76.0000   C.3       1 RES1  21.8720
   721 21.87  101.5000 100.5000  76.0000   C.3       1 RES1  21.8720
   722 21.87  101.5000 101.0000  76.0000   C.3       1 RES1  21.8720
   723 20.63  106.5000 100.0000  81.0000   C.3       1 RES1  20.6280
   724 20.63  106.5000 100.0000  81.5000   C.3       1 RES1  20.6280
   725 20.63  106.5000 100.0000  82.0000   C.3       1 RES1  20.6280
   726 29.01  103.0000 102.5000  82.0000   C.3       1 RES1  29.0110
   727 29.01  103.5000 102.5000  82.0000   C.3       1 RES1  29.0110
   728 29.01  104.0000 102.5000  82.0000   C.3       1 RES1  29.0110
   729 24.52  102.0000 100.5000  80.0000   C.3       1 RES1  24.5230
   730 29.37  102.5000 101.0000  80.0000   C.3       1 RES1  29.3690
   731 29.37  103.0000 101.0000  80.0000   C.3       1 RES1  29.3690
   732 29.37  103.5000 101.0000  80.0000   C.3       1 RES1  29.3690
   733 27.95  104.5000 100.0000  83.0000   C.3       1 RES1  27.9520
   734 27.95  104.5000 100.5000  83.0000   C.3       1 RES1  27.9520
   735 27.95  104.5000 101.0000  83.0000   C.3       1 RES1  27.9520
   736 27.95  105.0000 100.0000  83.0000   C.3       1 RES1  27.9520
   737 27.95  105.0000 100.5000  83.0000   C.3       1 RES1  27.9520
   738 27.95  105.0000 101.0000  83.0000   C.3       1 RES1  27.9520
   739 27.95  105.5000 100.0000  83.0000   C.3       1 RES1  27.9520
   740 27.95  105.5000 100.5000  83.0000   C.3       1 RES1  27.9520
   741 27.95  105.5000 101.0000  83.0000   C.3       1 RES1  27.9520
   742 21.07  101.5000  99.5000  80.0000   C.3       1 RES1  21.0700
   743 22.40  102.0000 101.5000  76.5000   C.3       1 RES1  22.3970
   744 20.55   96.5000  98.5000  81.0000   C.3       1 RES1  20.5470
   745 20.55   96.5000  99.0000  81.0000   C.3       1 RES1  20.5470
   746 20.55   96.5000  99.5000  81.0000   C.3       1 RES1  20.5470
   747 20.55   97.0000  98.5000  81.0000   C.3       1 RES1  20.5470
   748 20.55   97.0000  99.0000  81.0000   C.3       1 RES1  20.5470
   749 20.55   97.0000  99.5000  81.0000   C.3       1 RES1  20.5470
   750 20.55   97.5000  98.5000  81.0000   C.3       1 RES1  20.5470
   751 20.55   97.5000  99.0000  81.0000   C.3       1 RES1  20.5470
   752 20.55   97.5000  99.5000  81.0000   C.3       1 RES1  20.5470
   753 19.53   97.5000 101.0000  80.0000   C.3       1 RES1  19.5320
   754 19.53   98.0000 101.0000  80.0000   C.3       1 RES1  19.5320
   755 19.53   98.5000 101.0000  80.0000   C.3       1 RES1  19.5320
   756 19.72   99.0000 102.0000  78.5000   C.3       1 RES1  19.7190
   757 19.72  102.5000  99.5000  82.5000   C.3       1 RES1  19.7190
   758 20.82   96.0000  99.5000  78.5000   C.3       1 RES1  20.8150
   759 20.82   96.0000  99.5000  79.0000   C.3       1 RES1  20.8150
   760 20.82   96.0000  99.5000  79.5000   C.3       1 RES1  20.8150
   761 20.82   96.0000 100.0000  78.5000   C.3       1 RES1  20.8150
   762 20.82   96.0000 100.0000  79.0000   C.3       1 RES1  20.8150
   763 20.82   96.0000 100.0000  79.5000   C.3       1 RES1  20.8150
   764 20.82   96.0000 100.5000  78.5000   C.3       1 RES1  20.8150
   765 20.82   96.0000 100.5000  79.0000   C.3       1 RES1  20.8150
   766 20.82   96.0000 100.5000  79.5000   C.3       1 RES1  20.8150
   767 21.19  104.5000 100.5000  79.0000   C.3       1 RES1  21.1920
   768 21.99   97.5000 100.0000  78.0000   C.3       1 RES1  21.9870
   769 21.99   97.5000 100.0000  78.5000   C.3       1 RES1  21.9870
   770 21.99   97.5000 100.0000  79.0000   C.3       1 RES1  21.9870
   771 21.99   97.5000 100.5000  78.0000   C.3       1 RES1  21.9870
   772 21.99   97.5000 100.5000  78.5000   C.3       1 RES1  21.9870
   773 21.99   97.5000 100.5000  79.0000   C.3       1 RES1  21.9870
   774 21.99   97.5000 101.0000  78.0000   C.3       1 RES1  21.9870
   775 21.99   97.5000 101.0000  78.5000   C.3       1 RES1  21.9870
   776 21.99   97.5000 101.0000  79.0000   C.3       1 RES1  21.9870
   777 23.46  104.5000  99.5000  83.0000   C.3       1 RES1  23.4630
   778 23.46  105.0000  99.5000  83.0000   C.3       1 RES1  23.4630
   779 23.46  105.5000  99.5000  83.0000   C.3       1 RES1  23.4630
   780 20.34   96.0000  99.0000  79.5000   C.3       1 RES1  20.3370
   781 20.34   96.5000  99.0000  79.5000   C.3       1 RES1  20.3370
   782 20.34   97.0000  99.0000  79.5000   C.3       1 RES1  20.3370
   783 26.94  102.0000 102.5000  81.5000   C.3       1 RES1  26.9410
   784 20.33  100.5000 102.5000  78.5000   C.3       1 RES1  20.3280
   785 26.11  104.0000 101.0000  79.0000   C.3       1 RES1  26.1100
   786 21.85  102.0000 101.5000  76.0000   C.3       1 RES1  21.8520
   787 21.85  102.5000 101.5000  76.0000   C.3       1 RES1  21.8520
   788 21.85  102.5000 101.5000  76.5000   C.3       1 RES1  21.8520
   789 21.85  103.0000 101.5000  76.0000   C.3       1 RES1  21.8520
   790 21.85  103.0000 101.5000  76.5000   C.3       1 RES1  21.8520
   791 21.85  103.0000 101.5000  77.0000   C.3       1 RES1  21.8520
   792 20.66  101.5000 102.5000  81.5000   C.3       1 RES1  20.6570
   793 28.94  104.0000 101.5000  82.5000   C.3       1 RES1  28.9400
   794 28.94  104.5000 101.5000  82.5000   C.3       1 RES1  28.9400
   795 28.94  105.0000 101.5000  81.5000   C.3       1 RES1  28.9400
   796 28.94  105.0000 101.5000  82.0000   C.3       1 RES1  28.9400
   797 28.94  105.0000 101.5000  82.5000   C.3       1 RES1  28.9400
   798 19.90   99.0000  99.5000  79.5000   C.3       1 RES1  19.9040
   799 22.53  104.0000 100.0000  80.0000   C.3       1 RES1  22.5270
   800 20.60  105.5000  99.0000  82.5000   C.3       1 RES1  20.6010
   801 21.14   98.0000  98.0000  81.5000   C.3       1 RES1  21.1430
   802 21.14   98.0000  98.5000  81.5000   C.3       1 RES1  21.1430
   803 21.14   98.0000  99.0000  81.5000   C.3       1 RES1  21.1430
   804 22.68  105.0000 102.5000  81.5000   C.3       1 RES1  22.6810
   805 28.77  103.0000 100.5000  82.0000   C.3       1 RES1  28.7740
   806 22.76   98.5000 100.0000  77.5000   C.3       1 RES1  22.7610
   807 22.76   98.5000 100.0000  78.0000   C.3       1 RES1  22.7610
   808 22.76   98.5000 100.0000  78.5000   C.3       1 RES1  22.7610
   809 22.76   98.5000 100.5000  77.5000   C.3       1 RES1  22.7610
   810 22.76   98.5000 100.5000  78.0000   C.3       1 RES1  22.7610
   811 22.76   98.5000 100.5000  78.5000   C.3       1 RES1  22.7610
   812 22.76   98.5000 101.0000  77.5000   C.3       1 RES1  22.7610
   813 22.76   98.5000 101.0000  78.0000   C.3       1 RES1  22.7610
   814 22.76   98.5000 101.0000  78.5000   C.3       1 RES1  22.7610
   815 22.76   99.0000 100.0000  77.5000   C.3       1 RES1  22.7610
   816 22.76   99.0000 100.0000  78.0000   C.3       1 RES1  22.7610
   817 22.76   99.0000 100.0000  78.5000   C.3       1 RES1  22.7610
   818 22.76   99.0000 100.5000  77.5000   C.3       1 RES1  22.7610
   819 22.76   99.0000 100.5000  78.0000   C.3       1 RES1  22.7610
   820 22.76   99.0000 100.5000  78.5000   C.3       1 RES1  22.7610
   821 22.76   99.0000 101.0000  77.5000   C.3       1 RES1  22.7610
   822 22.76   99.0000 101.0000  78.0000   C.3       1 RES1  22.7610
   823 22.76   99.0000 101.0000  78.5000   C.3       1 RES1  22.7610
   824 22.76   99.5000 100.0000  77.5000   C.3       1 RES1  22.7610
   825 22.76   99.5000 100.0000  78.0000   C.3       1 RES1  22.7610
   826 22.76   99.5000 100.0000  78.5000   C.3       1 RES1  22.7610
   827 20.45  101.0000  97.0000  81.0000   C.3       1 RES1  20.4460
   828 20.45  101.0000  97.5000  81.0000   C.3       1 RES1  20.4460
   829 20.45  101.0000  98.0000  81.0000   C.3       1 RES1  20.4460
   830 22.34  102.0000 100.5000  79.5000   C.3       1 RES1  22.3410
   831 22.34  107.0000 101.0000  80.0000   C.3       1 RES1  22.3410
   832 22.34  107.0000 101.0000  80.5000   C.3       1 RES1  22.3410
   833 22.34  107.0000 101.0000  81.0000   C.3       1 RES1  22.3410
   834 22.34  107.0000 101.5000  80.0000   C.3       1 RES1  22.3410
   835 22.34  107.0000 101.5000  80.5000   C.3       1 RES1  22.3410
   836 22.34  107.0000 101.5000  81.0000   C.3       1 RES1  22.3410
   837 22.34  107.0000 102.0000  80.0000   C.3       1 RES1  22.3410
   838 22.34  107.0000 102.0000  80.5000   C.3       1 RES1  22.3410
   839 22.34  107.0000 102.0000  81.0000   C.3       1 RES1  22.3410
   840 20.58   95.5000  91.0000  84.5000   C.3       1 RES1  20.5830
   841 20.58   95.5000  91.0000  85.0000   C.3       1 RES1  20.5830
   842 20.58   95.5000  91.0000  85.5000   C.3       1 RES1  20.5830
   843 24.57  102.5000  99.5000  82.0000   C.3       1 RES1  24.5660
   844 28.82  102.5000 101.0000  79.5000   C.3       1 RES1  28.8240
   845 28.82  103.0000 101.0000  79.5000   C.3       1 RES1  28.8240
   846 28.82  103.5000 101.0000  79.5000   C.3       1 RES1  28.8240
   847 25.34  102.0000 103.0000  80.5000   C.3       1 RES1  25.3390
   848 25.34  102.0000 103.0000  81.0000   C.3       1 RES1  25.3390
   849 20.87  100.5000  99.0000  81.5000   C.3       1 RES1  20.8690
   850 20.87  100.5000  99.5000  81.5000   C.3       1 RES1  20.8690
   851 20.87  100.5000 100.0000  81.5000   C.3       1 RES1  20.8690
   852 20.87  101.0000  99.0000  81.5000   C.3       1 RES1  20.8690
   853 20.87  101.0000  99.5000  81.5000   C.3       1 RES1  20.8690
   854 22.28  103.0000 100.5000  78.0000   C.3       1 RES1  22.2760
   855 22.28  103.5000 100.5000  78.0000   C.3       1 RES1  22.2760
   856 22.28  104.0000 100.5000  78.0000   C.3       1 RES1  22.2760
   857 19.58   97.0000 100.0000  83.0000   C.3       1 RES1  19.5810
   858 27.45  106.0000 100.0000  81.5000   C.3       1 RES1  27.4490
   859 27.45  106.0000 100.0000  82.0000   C.3       1 RES1  27.4490
   860 27.45  106.0000 100.0000  82.5000   C.3       1 RES1  27.4490
   861 27.45  106.0000 100.5000  81.5000   C.3       1 RES1  27.4490
   862 27.45  106.0000 100.5000  82.0000   C.3       1 RES1  27.4490
   863 27.45  106.0000 100.5000  82.5000   C.3       1 RES1  27.4490
   864 27.45  106.0000 101.0000  81.5000   C.3       1 RES1  27.4490
   865 27.45  106.0000 101.0000  82.0000   C.3       1 RES1  27.4490
   866 27.45  106.0000 101.0000  82.5000   C.3       1 RES1  27.4490
   867 21.86  102.5000 102.5000  82.5000   C.3       1 RES1  21.8580
   868 31.14  102.5000 101.5000  79.5000   C.3       1 RES1  31.1390
   869 31.14  102.5000 102.0000  79.5000   C.3       1 RES1  31.1390
   870 31.14  102.5000 102.5000  79.5000   C.3       1 RES1  31.1390
   871 31.14  103.0000 101.5000  79.5000   C.3       1 RES1  31.1390
   872 31.14  103.0000 102.0000  79.5000   C.3       1 RES1  31.1390
   873 31.14  103.0000 102.5000  79.5000   C.3       1 RES1  31.1390
   874 31.14  103.5000 101.5000  79.5000   C.3       1 RES1  31.1390
   875 31.14  103.5000 102.0000  79.5000   C.3       1 RES1  31.1390
   876 31.14  103.5000 102.5000  79.5000   C.3       1 RES1  31.1390
   877 19.66   96.0000  93.5000  81.5000   C.3       1 RES1  19.6610
   878 19.66   96.5000  93.5000  81.5000   C.3       1 RES1  19.6610
   879 19.66   97.0000  92.5000  81.5000   C.3       1 RES1  19.6610
   880 19.66   97.0000  93.0000  81.5000   C.3       1 RES1  19.6610
   881 19.66   97.0000  93.5000  81.5000   C.3       1 RES1  19.6610
   882 21.84  104.0000  99.0000  80.0000   C.3       1 RES1  21.8410
   883 21.84  104.0000  99.5000  80.0000   C.3       1 RES1  21.8410
   884 30.63  102.5000 101.5000  79.0000   C.3       1 RES1  30.6300
   885 30.63  102.5000 102.0000  79.0000   C.3       1 RES1  30.6300
   886 30.63  102.5000 102.5000  79.0000   C.3       1 RES1  30.6300
   887 30.63  103.0000 101.5000  79.0000   C.3       1 RES1  30.6300
   888 30.63  103.5000 101.5000  79.0000   C.3       1 RES1  30.6300
   889 26.94  105.5000 101.5000  81.0000   C.3       1 RES1  26.9390
   890 23.35  102.5000  99.5000  80.0000   C.3       1 RES1  23.3530
   891 23.35  103.0000  99.5000  80.0000   C.3       1 RES1  23.3530
   892 23.35  103.5000  99.5000  80.0000   C.3       1 RES1  23.3530
   893 20.15  103.5000 102.0000  83.0000   C.3       1 RES1  20.1460
   894 20.15  104.0000 102.0000  83.0000   C.3       1 RES1  20.1460
   895 20.15  104.5000 102.0000  83.0000   C.3       1 RES1  20.1460
   896 30.75  104.5000 100.0000  81.5000   C.3       1 RES1  30.7470
   897 30.75  104.5000 100.0000  82.0000   C.3       1 RES1  30.7470
   898 30.75  104.5000 100.0000  82.5000   C.3       1 RES1  30.7470
   899 30.75  104.5000 100.5000  81.5000   C.3       1 RES1  30.7470
   900 30.75  104.5000 100.5000  82.0000   C.3       1 RES1  30.7470
   901 30.75  104.5000 100.5000  82.5000   C.3       1 RES1  30.7470
   902 30.75  104.5000 101.0000  81.5000   C.3       1 RES1  30.7470
   903 30.75  104.5000 101.0000  82.0000   C.3       1 RES1  30.7470
   904 30.75  104.5000 101.0000  82.5000   C.3       1 RES1  30.7470
   905 30.75  105.0000 100.0000  81.5000   C.3       1 RES1  30.7470
   906 30.75  105.0000 100.0000  82.0000   C.3       1 RES1  30.7470
   907 30.75  105.0000 100.0000  82.5000   C.3       1 RES1  30.7470
   908 30.75  105.0000 100.5000  81.5000   C.3       1 RES1  30.7470
   909 30.75  105.0000 100.5000  82.0000   C.3       1 RES1  30.7470
   910 30.75  105.0000 100.5000  82.5000   C.3       1 RES1  30.7470
   911 30.75  105.0000 101.0000  81.5000   C.3       1 RES1  30.7470
   912 30.75  105.0000 101.0000  82.0000   C.3       1 RES1  30.7470
   913 30.75  105.0000 101.0000  82.5000   C.3       1 RES1  30.7470
   914 30.75  105.5000 100.0000  81.5000   C.3       1 RES1  30.7470
   915 30.75  105.5000 100.0000  82.0000   C.3       1 RES1  30.7470
   916 30.75  105.5000 100.0000  82.5000   C.3       1 RES1  30.7470
   917 30.75  105.5000 100.5000  81.5000   C.3       1 RES1  30.7470
   918 30.75  105.5000 100.5000  82.0000   C.3       1 RES1  30.7470
   919 30.75  105.5000 100.5000  82.5000   C.3       1 RES1  30.7470
   920 30.75  105.5000 101.0000  81.5000   C.3       1 RES1  30.7470
   921 30.75  105.5000 101.0000  82.0000   C.3       1 RES1  30.7470
   922 30.75  105.5000 101.0000  82.5000   C.3       1 RES1  30.7470
   923 20.52  100.0000 103.0000  77.5000   C.3       1 RES1  20.5250
   924 19.83  104.0000 100.0000  78.0000   C.3       1 RES1  19.8290
   925 19.83  104.0000 100.0000  78.5000   C.3       1 RES1  19.8290
   926 19.83  104.0000 100.0000  79.0000   C.3       1 RES1  19.8290
   927 20.00   97.0000 101.0000  79.5000   C.3       1 RES1  19.9990
   928 27.07  103.0000 103.5000  80.0000   C.3       1 RES1  27.0700
   929 27.07  103.0000 103.5000  80.5000   C.3       1 RES1  27.0700
   930 27.07  103.0000 103.5000  81.0000   C.3       1 RES1  27.0700
   931 27.07  103.5000 103.5000  80.0000   C.3       1 RES1  27.0700
   932 27.07  103.5000 103.5000  80.5000   C.3       1 RES1  27.0700
   933 27.07  103.5000 103.5000  81.0000   C.3       1 RES1  27.0700
   934 27.07  104.0000 103.5000  80.0000   C.3       1 RES1  27.0700
   935 27.07  104.0000 103.5000  80.5000   C.3       1 RES1  27.0700
   936 27.07  104.0000 103.5000  81.0000   C.3       1 RES1  27.0700
   937 19.74  104.0000  98.5000  80.0000   C.3       1 RES1  19.7390
   938 22.57  102.5000  99.0000  80.0000   C.3       1 RES1  22.5700
   939 22.57  103.0000  99.0000  80.0000   C.3       1 RES1  22.5700
   940 22.57  103.5000  99.0000  80.0000   C.3       1 RES1  22.5700
   941 20.49  101.5000 102.5000  76.0000   C.3       1 RES1  20.4880
   942 20.49  102.0000 102.5000  76.0000   C.3       1 RES1  20.4880
   943 20.49  102.5000 102.5000  76.0000   C.3       1 RES1  20.4880
   944 21.27  101.0000 100.0000  81.5000   C.3       1 RES1  21.2700
   945 24.94  102.0000 101.5000  78.0000   C.3       1 RES1  24.9420
   946 19.73   96.5000 100.5000  80.5000   C.3       1 RES1  19.7300
   947 19.73   97.0000 100.5000  80.5000   C.3       1 RES1  19.7300
   948 19.73   97.5000  99.5000  80.5000   C.3       1 RES1  19.7300
   949 19.73   97.5000 100.0000  80.5000   C.3       1 RES1  19.7300
   950 19.73   97.5000 100.5000  80.5000   C.3       1 RES1  19.7300
   951 20.93  102.0000 103.0000  82.0000   C.3       1 RES1  20.9340
   952 23.14  102.5000 102.0000  76.5000   C.3       1 RES1  23.1350
   953 23.14  102.5000 102.5000  76.5000   C.3       1 RES1  23.1350
   954 23.14  102.5000 103.0000  76.5000   C.3       1 RES1  23.1350
   955 19.65   98.0000  96.5000  81.0000   C.3       1 RES1  19.6480
   956 19.56   96.5000  96.0000  79.0000   C.3       1 RES1  19.5620
   957 19.56   96.5000  96.5000  79.0000   C.3       1 RES1  19.5620
   958 19.56   96.5000  97.0000  79.0000   C.3       1 RES1  19.5620
   959 19.56   97.0000  96.0000  79.0000   C.3       1 RES1  19.5620
   960 19.56   97.5000  96.0000  79.0000   C.3       1 RES1  19.5620
   961 21.06   97.5000  99.5000  78.0000   C.3       1 RES1  21.0590
   962 21.06   98.0000  99.5000  78.0000   C.3       1 RES1  21.0590
   963 21.06   98.0000  99.5000  78.5000   C.3       1 RES1  21.0590
   964 21.06   98.0000  99.5000  79.0000   C.3       1 RES1  21.0590
   965 21.06   98.5000  99.5000  78.0000   C.3       1 RES1  21.0590
   966 21.06   98.5000  99.5000  78.5000   C.3       1 RES1  21.0590
   967 21.06   98.5000  99.5000  79.0000   C.3       1 RES1  21.0590
   968 21.06  100.0000 100.0000  79.0000   C.3       1 RES1  21.0590
   969 21.06  100.0000 100.0000  79.5000   C.3       1 RES1  21.0590
   970 21.06  100.0000 100.5000  79.5000   C.3       1 RES1  21.0590
   971 21.06  100.0000 101.0000  79.5000   C.3       1 RES1  21.0590
   972 21.06  100.5000 100.0000  79.0000   C.3       1 RES1  21.0590
   973 21.06  100.5000 100.0000  79.5000   C.3       1 RES1  21.0590
   974 21.06  101.0000 100.0000  79.5000   C.3       1 RES1  21.0590
   975 26.73  102.0000 103.0000  79.5000   C.3       1 RES1  26.7280
   976 19.86  101.5000  98.0000  81.5000   C.3       1 RES1  19.8590
   977 20.08  101.0000 100.5000  82.5000   C.3       1 RES1  20.0750
   978 20.08  101.5000 100.5000  82.5000   C.3       1 RES1  20.0750
   979 20.08  102.0000  99.5000  82.5000   C.3       1 RES1  20.0750
   980 20.08  102.0000 100.0000  82.5000   C.3       1 RES1  20.0750
   981 22.40  104.0000 100.5000  78.5000   C.3       1 RES1  22.4010
   982 23.22  106.5000 100.5000  80.5000   C.3       1 RES1  23.2190
   983 23.22  106.5000 100.5000  81.0000   C.3       1 RES1  23.2190
   984 23.22  106.5000 100.5000  81.5000   C.3       1 RES1  23.2190
   985 20.10   99.5000  99.5000  80.0000   C.3       1 RES1  20.1040
   986 20.10   99.5000  99.5000  80.5000   C.3       1 RES1  20.1040
   987 20.10   99.5000  99.5000  81.0000   C.3       1 RES1  20.1040
   988 20.10   99.5000 100.0000  80.5000   C.3       1 RES1  20.1040
   989 20.10   99.5000 100.0000  81.0000   C.3       1 RES1  20.1040
   990 20.10   99.5000 100.5000  80.5000   C.3       1 RES1  20.1040
   991 20.10   99.5000 100.5000  81.0000   C.3       1 RES1  20.1040
   992 20.10  100.0000  99.5000  80.0000   C.3       1 RES1  20.1040
   993 20.10  100.0000  99.5000  80.5000   C.3       1 RES1  20.1040
   994 20.10  100.0000  99.5000  81.0000   C.3       1 RES1  20.1040
   995 20.10  100.5000  99.5000  80.0000   C.3       1 RES1  20.1040
   996 20.10  100.5000  99.5000  80.5000   C.3       1 RES1  20.1040
   997 20.10  100.5000  99.5000  81.0000   C.3       1 RES1  20.1040
   998 20.72  102.5000  98.5000  79.5000   C.3       1 RES1  20.7230
   999 26.48  102.0000 101.0000  79.5000   C.3       1 RES1  26.4780
  1000 21.28  100.0000 100.0000  78.5000   C.3       1 RES1  21.2760
  1001 27.80  105.0000 101.5000  81.0000   C.3       1 RES1  27.7990
  1002 19.93  103.5000 100.0000  76.5000   C.3       1 RES1  19.9320
  1003 19.93  103.5000 100.0000  77.0000   C.3       1 RES1  19.9320
  1004 19.93  103.5000 100.0000  77.5000   C.3       1 RES1  19.9320
  1005 21.05  100.5000 100.5000  81.5000   C.3       1 RES1  21.0480
  1006 21.05  100.5000 101.0000  81.5000   C.3       1 RES1  21.0480
  1007 21.05  100.5000 101.5000  80.5000   C.3       1 RES1  21.0480
  1008 21.05  100.5000 101.5000  81.0000   C.3       1 RES1  21.0480
  1009 21.05  100.5000 101.5000  81.5000   C.3       1 RES1  21.0480
  1010 29.71  102.5000 103.0000  79.5000   C.3       1 RES1  29.7100
  1011 20.72  101.5000  97.0000  80.0000   C.3       1 RES1  20.7240
  1012 20.72  101.5000  97.0000  80.5000   C.3       1 RES1  20.7240
  1013 20.72  101.5000  97.0000  81.0000   C.3       1 RES1  20.7240
  1014 20.72  101.5000  97.5000  80.5000   C.3       1 RES1  20.7240
  1015 20.72  101.5000  97.5000  81.0000   C.3       1 RES1  20.7240
  1016 20.72  101.5000  98.0000  80.5000   C.3       1 RES1  20.7240
  1017 20.72  101.5000  98.0000  81.0000   C.3       1 RES1  20.7240
  1018 20.72  102.0000  97.0000  80.0000   C.3       1 RES1  20.7240
  1019 20.72  102.0000  97.0000  80.5000   C.3       1 RES1  20.7240
  1020 20.72  102.0000  97.0000  81.0000   C.3       1 RES1  20.7240
  1021 27.42  105.5000 101.5000  81.5000   C.3       1 RES1  27.4190
  1022 27.42  105.5000 101.5000  82.0000   C.3       1 RES1  27.4190
  1023 27.42  105.5000 101.5000  82.5000   C.3       1 RES1  27.4190
  1024 19.90   96.0000  99.5000  81.5000   C.3       1 RES1  19.8960
  1025 19.90   96.0000 100.0000  81.5000   C.3       1 RES1  19.8960
  1026 19.90   96.5000 100.0000  81.5000   C.3       1 RES1  19.8960
  1027 22.63  101.0000 100.0000  78.5000   C.3       1 RES1  22.6280
  1028 22.63  101.5000 100.0000  78.5000   C.3       1 RES1  22.6280
  1029 22.63  102.0000 100.0000  77.5000   C.3       1 RES1  22.6280
  1030 22.63  102.0000 100.0000  78.0000   C.3       1 RES1  22.6280
  1031 22.63  102.0000 100.0000  78.5000   C.3       1 RES1  22.6280
  1032 29.30  102.5000 100.5000  80.5000   C.3       1 RES1  29.2970
  1033 29.30  102.5000 100.5000  81.0000   C.3       1 RES1  29.2970
  1034 29.30  102.5000 100.5000  81.5000   C.3       1 RES1  29.2970
  1035 29.30  103.0000 100.5000  80.5000   C.3       1 RES1  29.2970
  1036 29.30  103.0000 100.5000  81.0000   C.3       1 RES1  29.2970
  1037 29.30  103.0000 100.5000  81.5000   C.3       1 RES1  29.2970
  1038 29.30  103.5000 100.5000  80.5000   C.3       1 RES1  29.2970
  1039 29.30  103.5000 100.5000  81.0000   C.3       1 RES1  29.2970
  1040 29.30  103.5000 100.5000  81.5000   C.3       1 RES1  29.2970
  1041 25.46  102.5000  99.0000  80.5000   C.3       1 RES1  25.4590
  1042 25.46  102.5000  99.0000  81.0000   C.3       1 RES1  25.4590
  1043 25.46  102.5000  99.0000  81.5000   C.3       1 RES1  25.4590
  1044 25.46  103.0000  99.0000  80.5000   C.3       1 RES1  25.4590
  1045 25.46  103.0000  99.0000  81.0000   C.3       1 RES1  25.4590
  1046 25.46  103.0000  99.0000  81.5000   C.3       1 RES1  25.4590
  1047 25.46  103.5000  99.0000  80.5000   C.3       1 RES1  25.4590
  1048 25.46  103.5000  99.0000  81.0000   C.3       1 RES1  25.4590
  1049 25.46  103.5000  99.0000  81.5000   C.3       1 RES1  25.4590
  1050 19.54   98.5000  96.5000  79.5000   C.3       1 RES1  19.5390
  1051 19.54   98.5000  96.5000  80.0000   C.3       1 RES1  19.5390
  1052 19.54   98.5000  96.5000  80.5000   C.3       1 RES1  19.5390
  1053 19.54   98.5000  97.0000  79.5000   C.3       1 RES1  19.5390
  1054 19.54   98.5000  97.0000  80.0000   C.3       1 RES1  19.5390
  1055 19.54   98.5000  97.0000  80.5000   C.3       1 RES1  19.5390
  1056 19.54   98.5000  97.5000  79.5000   C.3       1 RES1  19.5390
  1057 19.54   98.5000  97.5000  80.0000   C.3       1 RES1  19.5390
  1058 19.54   98.5000  97.5000  80.5000   C.3       1 RES1  19.5390
  1059 19.50   95.0000  90.5000  84.5000   C.3       1 RES1  19.4970
  1060 19.50   95.5000  90.5000  84.5000   C.3       1 RES1  19.4970
  1061 19.50   96.0000  90.5000  83.5000   C.3       1 RES1  19.4970
  1062 21.52  100.0000 102.0000  78.5000   C.3       1 RES1  21.5160
  1063 21.52  100.5000 102.0000  78.5000   C.3       1 RES1  21.5160
  1064 19.81  101.5000 103.5000  76.0000   C.3       1 RES1  19.8130
  1065 19.81  102.0000 103.5000  76.0000   C.3       1 RES1  19.8130
  1066 20.04   98.5000  99.5000  81.5000   C.3       1 RES1  20.0370
  1067 23.20  103.5000 100.5000  83.0000   C.3       1 RES1  23.1990
  1068 23.20  103.5000 101.0000  83.0000   C.3       1 RES1  23.1990
  1069 23.20  103.5000 101.5000  83.0000   C.3       1 RES1  23.1990
  1070 24.19  102.5000  99.0000  82.0000   C.3       1 RES1  24.1870
  1071 24.12  103.0000 100.0000  82.5000   C.3       1 RES1  24.1170
  1072 23.56  102.5000 101.5000  77.5000   C.3       1 RES1  23.5580
  1073 20.50  100.0000  98.5000  82.0000   C.3       1 RES1  20.5050
  1074 20.50  100.0000  98.5000  82.5000   C.3       1 RES1  20.5050
  1075 20.50  100.0000  98.5000  83.0000   C.3       1 RES1  20.5050
  1076 20.50  102.5000  98.0000  81.5000   C.3       1 RES1  20.5050
  1077 21.18  104.0000  99.0000  82.5000   C.3       1 RES1  21.1780
  1078 21.18  104.5000  99.0000  82.5000   C.3       1 RES1  21.1780
  1079 21.18  105.0000  99.0000  82.5000   C.3       1 RES1  21.1780
  1080 23.60  102.0000 100.0000  82.0000   C.3       1 RES1  23.6050
  1081 21.85  106.5000 100.5000  82.0000   C.3       1 RES1  21.8500
  1082 21.85  106.5000 101.0000  82.0000   C.3       1 RES1  21.8500
  1083 21.85  106.5000 101.5000  82.0000   C.3       1 RES1  21.8500
  1084 27.42  104.5000 102.5000  81.0000   C.3       1 RES1  27.4220
  1085 27.42  104.5000 102.5000  81.5000   C.3       1 RES1  27.4220
  1086 22.63  101.5000 100.0000  79.0000   C.3       1 RES1  22.6270
  1087 22.63  102.0000 100.0000  79.0000   C.3       1 RES1  22.6270
  1088 22.63  102.5000 100.0000  78.0000   C.3       1 RES1  22.6270
  1089 22.63  102.5000 100.0000  78.5000   C.3       1 RES1  22.6270
  1090 22.63  102.5000 100.0000  79.0000   C.3       1 RES1  22.6270
  1091 22.12  105.5000 102.5000  81.5000   C.3       1 RES1  22.1180
  1092 22.12  106.0000 102.5000  81.5000   C.3       1 RES1  22.1180
  1093 20.35   99.0000  95.0000  81.0000   C.3       1 RES1  20.3500
  1094 20.35   99.0000  95.0000  81.5000   C.3       1 RES1  20.3500
  1095 20.35   99.0000  95.0000  82.0000   C.3       1 RES1  20.3500
  1096 20.35   99.0000  95.5000  81.0000   C.3       1 RES1  20.3500
  1097 20.35   99.0000  95.5000  81.5000   C.3       1 RES1  20.3500
  1098 20.35   99.0000  95.5000  82.0000   C.3       1 RES1  20.3500
  1099 20.35   99.0000  96.0000  81.0000   C.3       1 RES1  20.3500
  1100 20.35   99.0000  96.0000  81.5000   C.3       1 RES1  20.3500
  1101 20.35   99.0000  96.0000  82.0000   C.3       1 RES1  20.3500
  1102 20.35   99.5000  95.0000  81.0000   C.3       1 RES1  20.3500
  1103 20.35   99.5000  95.0000  81.5000   C.3       1 RES1  20.3500
  1104 20.35   99.5000  95.0000  82.0000   C.3       1 RES1  20.3500
  1105 20.35   99.5000  95.5000  81.0000   C.3       1 RES1  20.3500
  1106 20.35   99.5000  95.5000  81.5000   C.3       1 RES1  20.3500
  1107 20.35   99.5000  95.5000  82.0000   C.3       1 RES1  20.3500
  1108 20.35   99.5000  96.0000  81.0000   C.3       1 RES1  20.3500
  1109 20.35   99.5000  96.0000  81.5000   C.3       1 RES1  20.3500
  1110 20.35   99.5000  96.0000  82.0000   C.3       1 RES1  20.3500
  1111 20.35  100.0000  95.0000  81.0000   C.3       1 RES1  20.3500
  1112 20.35  100.0000  95.0000  81.5000   C.3       1 RES1  20.3500
  1113 20.35  100.0000  95.0000  82.0000   C.3       1 RES1  20.3500
  1114 20.35  100.0000  95.5000  81.0000   C.3       1 RES1  20.3500
  1115 20.35  100.0000  95.5000  81.5000   C.3       1 RES1  20.3500
  1116 20.35  100.0000  95.5000  82.0000   C.3       1 RES1  20.3500
  1117 20.35  100.0000  96.0000  81.0000   C.3       1 RES1  20.3500
  1118 20.35  100.0000  96.0000  81.5000   C.3       1 RES1  20.3500
  1119 20.35  100.0000  96.0000  82.0000   C.3       1 RES1  20.3500
  1120 20.74   96.5000  99.5000  80.0000   C.3       1 RES1  20.7430
  1121 20.74   96.5000 100.0000  80.0000   C.3       1 RES1  20.7430
  1122 20.74   96.5000 100.5000  80.0000   C.3       1 RES1  20.7430
  1123 20.74   97.0000  99.5000  80.0000   C.3       1 RES1  20.7430
  1124 20.74   97.0000 100.0000  80.0000   C.3       1 RES1  20.7430
  1125 20.74   97.0000 100.5000  80.0000   C.3       1 RES1  20.7430
  1126 20.74   97.5000  99.5000  80.0000   C.3       1 RES1  20.7430
  1127 20.74   97.5000 100.0000  80.0000   C.3       1 RES1  20.7430
  1128 20.74   97.5000 100.5000  80.0000   C.3       1 RES1  20.7430
  1129 20.02   99.5000 101.0000  80.5000   C.3       1 RES1  20.0220
  1130 22.27  105.5000 102.0000  82.0000   C.3       1 RES1  22.2680
  1131 22.27  106.0000 102.0000  82.0000   C.3       1 RES1  22.2680
  1132 19.48  100.0000  98.5000  81.5000   C.3       1 RES1  19.4840
  1133 20.19   99.5000 100.0000  79.5000   C.3       1 RES1  20.1860
  1134 20.19   99.5000 100.0000  80.0000   C.3       1 RES1  20.1860
  1135 20.19   99.5000 100.5000  79.5000   C.3       1 RES1  20.1860
  1136 20.19   99.5000 100.5000  80.0000   C.3       1 RES1  20.1860
  1137 20.19   99.5000 101.0000  79.5000   C.3       1 RES1  20.1860
  1138 20.19   99.5000 101.0000  80.0000   C.3       1 RES1  20.1860
  1139 23.64  101.5000 101.5000  79.0000   C.3       1 RES1  23.6420
  1140 23.64  101.5000 102.0000  79.0000   C.3       1 RES1  23.6420
  1141 23.64  101.5000 102.5000  79.0000   C.3       1 RES1  23.6420
  1142 26.31  106.0000 100.0000  81.0000   C.3       1 RES1  26.3080
  1143 26.31  106.0000 100.5000  81.0000   C.3       1 RES1  26.3080
  1144 25.27  104.5000 103.0000  81.5000   C.3       1 RES1  25.2660
  1145 23.06  100.5000 101.5000  76.5000   C.3       1 RES1  23.0640
  1146 23.06  100.5000 101.5000  77.0000   C.3       1 RES1  23.0640
  1147 23.06  100.5000 101.5000  77.5000   C.3       1 RES1  23.0640
  1148 23.06  100.5000 102.0000  76.5000   C.3       1 RES1  23.0640
  1149 23.06  100.5000 102.0000  77.0000   C.3       1 RES1  23.0640
  1150 23.06  100.5000 102.0000  77.5000   C.3       1 RES1  23.0640
  1151 23.06  100.5000 102.5000  77.5000   C.3       1 RES1  23.0640
  1152 23.06  101.0000 101.5000  76.5000   C.3       1 RES1  23.0640
  1153 23.06  101.0000 101.5000  77.0000   C.3       1 RES1  23.0640
  1154 23.06  101.5000 101.5000  76.5000   C.3       1 RES1  23.0640
  1155 23.06  101.5000 101.5000  77.0000   C.3       1 RES1  23.0640
  1156 20.60  103.0000  99.0000  78.0000   C.3       1 RES1  20.5970
  1157 20.60  103.0000  99.0000  78.5000   C.3       1 RES1  20.5970
  1158 20.60  103.0000  99.0000  79.0000   C.3       1 RES1  20.5970
  1159 20.60  103.0000  99.5000  78.0000   C.3       1 RES1  20.5970
  1160 20.60  103.0000  99.5000  78.5000   C.3       1 RES1  20.5970
  1161 20.60  103.0000  99.5000  79.0000   C.3       1 RES1  20.5970
  1162 20.05   98.5000  93.0000  82.5000   C.3       1 RES1  20.0490
  1163 20.05   98.5000  93.5000  82.5000   C.3       1 RES1  20.0490
  1164 20.05   98.5000  94.0000  82.5000   C.3       1 RES1  20.0490
  1165 19.51  100.5000  95.0000  81.0000   C.3       1 RES1  19.5080
  1166 19.51  100.5000  95.0000  81.5000   C.3       1 RES1  19.5080
  1167 19.51  100.5000  95.0000  82.0000   C.3       1 RES1  19.5080
  1168 19.51  100.5000  95.5000  81.0000   C.3       1 RES1  19.5080
  1169 19.51  100.5000  95.5000  81.5000   C.3       1 RES1  19.5080
  1170 19.51  100.5000  95.5000  82.0000   C.3       1 RES1  19.5080
  1171 19.51  100.5000  96.0000  81.0000   C.3       1 RES1  19.5080
  1172 19.51  100.5000  96.0000  81.5000   C.3       1 RES1  19.5080
  1173 19.51  100.5000  96.0000  82.0000   C.3       1 RES1  19.5080
  1174 20.26   99.0000  92.5000  81.0000   C.3       1 RES1  20.2570
  1175 20.26   99.0000  92.5000  81.5000   C.3       1 RES1  20.2570
  1176 20.26   99.5000  92.5000  81.0000   C.3       1 RES1  20.2570
  1177 20.26   99.5000  92.5000  81.5000   C.3       1 RES1  20.2570
  1178 20.26  100.0000  92.5000  81.0000   C.3       1 RES1  20.2570
  1179 20.26  100.0000  92.5000  81.5000   C.3       1 RES1  20.2570
  1180 21.56  100.0000 102.5000  77.5000   C.3       1 RES1  21.5590
  1181 21.56  100.0000 102.5000  78.0000   C.3       1 RES1  21.5590
  1182 23.93  104.5000 103.5000  81.0000   C.3       1 RES1  23.9260
  1183 21.34  101.5000 102.5000  80.5000   C.3       1 RES1  21.3370
  1184 21.34  101.5000 102.5000  81.0000   C.3       1 RES1  21.3370
  1185 21.36  100.0000  99.0000  82.0000   C.3       1 RES1  21.3640
  1186 21.36  100.0000  99.0000  82.5000   C.3       1 RES1  21.3640
  1187 21.36  100.0000  99.0000  83.0000   C.3       1 RES1  21.3640
  1188 21.36  100.0000  99.5000  82.0000   C.3       1 RES1  21.3640
  1189 21.36  100.0000  99.5000  82.5000   C.3       1 RES1  21.3640
  1190 21.36  100.0000  99.5000  83.0000   C.3       1 RES1  21.3640
  1191 21.36  100.0000 100.0000  82.0000   C.3       1 RES1  21.3640
  1192 21.36  100.0000 100.0000  82.5000   C.3       1 RES1  21.3640
  1193 21.36  100.0000 100.0000  83.0000   C.3       1 RES1  21.3640
  1194 25.01  105.0000 102.0000  81.0000   C.3       1 RES1  25.0110
  1195 19.80   99.5000  99.0000  81.5000   C.3       1 RES1  19.8040
  1196 19.80   99.5000  99.5000  81.5000   C.3       1 RES1  19.8040
  1197 19.80   99.5000 100.0000  81.5000   C.3       1 RES1  19.8040
  1198 20.98   98.5000  97.0000  81.0000   C.3       1 RES1  20.9800
  1199 20.98   98.5000  97.0000  81.5000   C.3       1 RES1  20.9800
  1200 20.98   98.5000  97.0000  82.0000   C.3       1 RES1  20.9800
  1201 20.98   98.5000  97.5000  81.0000   C.3       1 RES1  20.9800
  1202 20.98   98.5000  97.5000  81.5000   C.3       1 RES1  20.9800
  1203 20.98   98.5000  97.5000  82.0000   C.3       1 RES1  20.9800
  1204 20.98   98.5000  98.0000  81.0000   C.3       1 RES1  20.9800
  1205 20.98   98.5000  98.0000  81.5000   C.3       1 RES1  20.9800
  1206 20.98   98.5000  98.0000  82.0000   C.3       1 RES1  20.9800
  1207 20.98   99.0000  97.0000  81.0000   C.3       1 RES1  20.9800
  1208 20.98   99.0000  97.0000  81.5000   C.3       1 RES1  20.9800
  1209 20.98   99.0000  97.0000  82.0000   C.3       1 RES1  20.9800
  1210 20.98   99.0000  97.5000  81.0000   C.3       1 RES1  20.9800
  1211 20.98   99.0000  97.5000  81.5000   C.3       1 RES1  20.9800
  1212 20.98   99.0000  97.5000  82.0000   C.3       1 RES1  20.9800
  1213 20.98   99.0000  98.0000  81.0000   C.3       1 RES1  20.9800
  1214 20.98   99.0000  98.0000  81.5000   C.3       1 RES1  20.9800
  1215 20.98   99.0000  98.0000  82.0000   C.3       1 RES1  20.9800
  1216 20.98   99.5000  97.0000  81.0000   C.3       1 RES1  20.9800
  1217 20.98   99.5000  97.0000  81.5000   C.3       1 RES1  20.9800
  1218 20.98   99.5000  97.0000  82.0000   C.3       1 RES1  20.9800
  1219 20.98   99.5000  97.5000  81.0000   C.3       1 RES1  20.9800
  1220 20.98   99.5000  97.5000  81.5000   C.3       1 RES1  20.9800
  1221 20.98   99.5000  97.5000  82.0000   C.3       1 RES1  20.9800
  1222 20.98   99.5000  98.0000  81.0000   C.3       1 RES1  20.9800
  1223 20.98   99.5000  98.0000  81.5000   C.3       1 RES1  20.9800
  1224 20.98   99.5000  98.0000  82.0000   C.3       1 RES1  20.9800
  1225 20.85   99.0000  93.5000  82.5000   C.3       1 RES1  20.8510
  1226 20.85   99.0000  94.0000  82.5000   C.3       1 RES1  20.8510
  1227 20.85   99.5000  94.0000  82.5000   C.3       1 RES1  20.8510
  1228 20.85  100.0000  94.0000  82.5000   C.3       1 RES1  20.8510
  1229 20.47  103.5000 100.5000  76.0000   C.3       1 RES1  20.4660
  1230 20.47  103.5000 101.0000  76.0000   C.3       1 RES1  20.4660
  1231 20.47  103.5000 101.5000  76.0000   C.3       1 RES1  20.4660
  1232 19.68  103.0000  98.0000  82.0000   C.3       1 RES1  19.6790
  1233 19.68  103.5000  98.0000  82.0000   C.3       1 RES1  19.6790
  1234 19.68  104.0000  98.0000  82.0000   C.3       1 RES1  19.6790
  1235 19.60   97.5000 101.5000  77.5000   C.3       1 RES1  19.5960
  1236 19.60   97.5000 101.5000  78.0000   C.3       1 RES1  19.5960
  1237 19.60   97.5000 101.5000  78.5000   C.3       1 RES1  19.5960
  1238 20.33  103.0000 100.5000  83.0000   C.3       1 RES1  20.3260
  1239 20.33  103.0000 101.0000  83.0000   C.3       1 RES1  20.3260
  1240 20.33  103.0000 101.5000  83.0000   C.3       1 RES1  20.3260
  1241 21.52   98.0000 101.5000  77.5000   C.3       1 RES1  21.5180
  1242 21.52   98.0000 101.5000  78.0000   C.3       1 RES1  21.5180
  1243 21.52   98.0000 101.5000  78.5000   C.3       1 RES1  21.5180
  1244 20.16  102.5000  97.0000  79.5000   C.3       1 RES1  20.1570
  1245 22.79  102.5000 100.5000  82.5000   C.3       1 RES1  22.7860
  1246 22.73  102.5000 100.5000  78.5000   C.3       1 RES1  22.7250
  1247 22.73  103.0000 100.5000  78.5000   C.3       1 RES1  22.7250
  1248 22.73  103.5000 100.5000  78.5000   C.3       1 RES1  22.7250
  1249 19.74  103.0000 102.5000  76.5000   C.3       1 RES1  19.7370
  1250 20.01   99.0000  99.0000  81.5000   C.3       1 RES1  20.0130
  1251 20.01   99.0000  99.0000  82.0000   C.3       1 RES1  20.0130
  1252 20.01   99.0000  99.0000  82.5000   C.3       1 RES1  20.0130
  1253 19.49   99.5000 101.0000  81.0000   C.3       1 RES1  19.4850
  1254 19.49  100.5000 104.5000  76.5000   C.3       1 RES1  19.4850
  1255 19.49  100.5000 104.5000  77.0000   C.3       1 RES1  19.4850
  1256 19.49  100.5000 104.5000  77.5000   C.3       1 RES1  19.4850
  1257 20.18  101.0000  98.5000  77.0000   C.3       1 RES1  20.1850
  1258 20.18  101.5000  98.5000  77.0000   C.3       1 RES1  20.1850
  1259 20.18  102.0000  98.5000  77.0000   C.3       1 RES1  20.1850
  1260 21.90  104.0000 103.5000  82.0000   C.3       1 RES1  21.8970
  1261 20.57  103.0000  98.0000  81.5000   C.3       1 RES1  20.5660
  1262 20.57  103.5000  98.0000  81.5000   C.3       1 RES1  20.5660
  1263 20.57  104.0000  98.0000  80.5000   C.3       1 RES1  20.5660
  1264 20.57  104.0000  98.0000  81.0000   C.3       1 RES1  20.5660
  1265 20.57  104.0000  98.0000  81.5000   C.3       1 RES1  20.5660
  1266 19.60   99.5000  99.0000  80.0000   C.3       1 RES1  19.6010
  1267 19.60   99.5000  99.0000  80.5000   C.3       1 RES1  19.6010
  1268 19.60   99.5000  99.5000  79.5000   C.3       1 RES1  19.6010
  1269 19.74   97.5000 100.0000  83.0000   C.3       1 RES1  19.7350
  1270 19.74   98.0000 100.0000  83.0000   C.3       1 RES1  19.7350
  1271 19.74   98.5000 100.0000  82.0000   C.3       1 RES1  19.7350
  1272 19.74   98.5000 100.0000  82.5000   C.3       1 RES1  19.7350
  1273 19.74   98.5000 100.0000  83.0000   C.3       1 RES1  19.7350
  1274 23.65  101.5000  99.5000  78.0000   C.3       1 RES1  23.6460
  1275 23.65  101.5000  99.5000  78.5000   C.3       1 RES1  23.6460
  1276 23.65  101.5000  99.5000  79.0000   C.3       1 RES1  23.6460
  1277 23.65  102.0000  98.5000  78.0000   C.3       1 RES1  23.6460
  1278 23.65  102.0000  99.0000  78.0000   C.3       1 RES1  23.6460
  1279 23.65  102.0000  99.5000  78.0000   C.3       1 RES1  23.6460
  1280 23.65  102.0000  99.5000  78.5000   C.3       1 RES1  23.6460
  1281 23.65  102.0000  99.5000  79.0000   C.3       1 RES1  23.6460
  1282 20.06  100.5000  97.0000  80.0000   C.3       1 RES1  20.0550
  1283 20.06  100.5000  97.0000  80.5000   C.3       1 RES1  20.0550
  1284 20.06  100.5000  97.0000  81.0000   C.3       1 RES1  20.0550
  1285 29.80  104.0000 101.5000  79.0000   C.3       1 RES1  29.8030
  1286 19.98  101.0000 102.0000  76.0000   C.3       1 RES1  19.9770
  1287 19.98  101.5000 103.0000  76.0000   C.3       1 RES1  19.9770
  1288 21.42  104.5000 103.0000  82.0000   C.3       1 RES1  21.4160
  1289 20.81  104.5000 100.5000  78.0000   C.3       1 RES1  20.8060
  1290 20.81  104.5000 100.5000  78.5000   C.3       1 RES1  20.8060
  1291 20.49   97.5000 100.0000  77.5000   C.3       1 RES1  20.4940
  1292 20.49   97.5000 100.5000  77.5000   C.3       1 RES1  20.4940
  1293 20.49   97.5000 101.0000  77.5000   C.3       1 RES1  20.4940
  1294 20.49  101.0000  97.0000  79.5000   C.3       1 RES1  20.4940
  1295 20.49  101.0000  97.0000  80.0000   C.3       1 RES1  20.4940
  1296 20.49  101.0000  97.0000  80.5000   C.3       1 RES1  20.4940
  1297 20.49  101.0000  97.5000  80.5000   C.3       1 RES1  20.4940
  1298 20.49  101.0000  98.0000  80.5000   C.3       1 RES1  20.4940
  1299 20.49  101.5000  97.0000  79.5000   C.3       1 RES1  20.4940
  1300 20.49  102.0000  97.0000  79.5000   C.3       1 RES1  20.4940
  1301 19.89   97.5000  97.5000  81.5000   C.3       1 RES1  19.8860
  1302 19.89   97.5000  97.5000  82.0000   C.3       1 RES1  19.8860
  1303 19.89   97.5000  97.5000  82.5000   C.3       1 RES1  19.8860
  1304 19.89   99.5000  98.5000  81.5000   C.3       1 RES1  19.8860
  1305 19.89   99.5000  98.5000  82.0000   C.3       1 RES1  19.8860
  1306 19.89   99.5000  98.5000  82.5000   C.3       1 RES1  19.8860
  1307 21.16  100.5000 103.5000  77.5000   C.3       1 RES1  21.1570
  1308 19.60  103.0000  99.0000  77.5000   C.3       1 RES1  19.5970
  1309 19.72  104.5000 100.5000  83.5000   C.3       1 RES1  19.7240
  1310 19.72  104.5000 101.0000  83.5000   C.3       1 RES1  19.7240
  1311 19.72  104.5000 101.5000  83.5000   C.3       1 RES1  19.7240
  1312 19.72  105.0000 100.5000  83.5000   C.3       1 RES1  19.7240
  1313 19.72  105.0000 101.0000  83.5000   C.3       1 RES1  19.7240
  1314 19.72  105.0000 101.5000  83.5000   C.3       1 RES1  19.7240
  1315 19.72  105.5000 100.5000  83.5000   C.3       1 RES1  19.7240
  1316 19.72  105.5000 101.0000  83.5000   C.3       1 RES1  19.7240
  1317 19.72  105.5000 101.5000  83.5000   C.3       1 RES1  19.7240
  1318 21.10  103.0000  99.0000  79.5000   C.3       1 RES1  21.0980
  1319 22.64  101.5000 100.5000  82.0000   C.3       1 RES1  22.6350
  1320 22.64  101.5000 101.0000  82.0000   C.3       1 RES1  22.6350
  1321 22.64  101.5000 101.5000  82.0000   C.3       1 RES1  22.6350
  1322 20.48   97.5000  96.0000  81.5000   C.3       1 RES1  20.4810
  1323 20.48   97.5000  96.0000  82.0000   C.3       1 RES1  20.4810
  1324 20.48   97.5000  96.0000  82.5000   C.3       1 RES1  20.4810
  1325 20.48   97.5000  96.5000  81.5000   C.3       1 RES1  20.4810
  1326 20.48   97.5000  96.5000  82.0000   C.3       1 RES1  20.4810
  1327 20.48   97.5000  96.5000  82.5000   C.3       1 RES1  20.4810
  1328 20.48   97.5000  97.0000  81.5000   C.3       1 RES1  20.4810
  1329 20.48   97.5000  97.0000  82.0000   C.3       1 RES1  20.4810
  1330 20.48   97.5000  97.0000  82.5000   C.3       1 RES1  20.4810
  1331 20.48   98.0000  96.0000  81.5000   C.3       1 RES1  20.4810
  1332 20.48   98.0000  96.0000  82.0000   C.3       1 RES1  20.4810
  1333 20.48   98.0000  96.0000  82.5000   C.3       1 RES1  20.4810
  1334 20.48   98.0000  96.5000  81.5000   C.3       1 RES1  20.4810
  1335 20.48   98.0000  96.5000  82.0000   C.3       1 RES1  20.4810
  1336 20.48   98.0000  96.5000  82.5000   C.3       1 RES1  20.4810
  1337 20.48   98.0000  97.0000  81.5000   C.3       1 RES1  20.4810
  1338 20.48   98.0000  97.0000  82.0000   C.3       1 RES1  20.4810
  1339 20.48   98.0000  97.0000  82.5000   C.3       1 RES1  20.4810
  1340 20.48   98.5000  96.0000  81.5000   C.3       1 RES1  20.4810
  1341 20.48   98.5000  96.0000  82.0000   C.3       1 RES1  20.4810
  1342 20.48   98.5000  96.0000  82.5000   C.3       1 RES1  20.4810
  1343 20.48   98.5000  96.5000  81.5000   C.3       1 RES1  20.4810
  1344 20.48   98.5000  96.5000  82.0000   C.3       1 RES1  20.4810
  1345 20.48   98.5000  96.5000  82.5000   C.3       1 RES1  20.4810
  1346 19.72   95.5000  91.5000  82.0000   C.3       1 RES1  19.7220
  1347 19.72   95.5000  91.5000  82.5000   C.3       1 RES1  19.7220
  1348 19.72   96.0000  91.5000  82.0000   C.3       1 RES1  19.7220
  1349 19.72   96.0000  91.5000  82.5000   C.3       1 RES1  19.7220
  1350 19.72   96.0000  91.5000  83.0000   C.3       1 RES1  19.7220
  1351 19.72   96.5000  91.5000  82.0000   C.3       1 RES1  19.7220
  1352 19.72   96.5000  91.5000  82.5000   C.3       1 RES1  19.7220
  1353 19.72   96.5000  91.5000  83.0000   C.3       1 RES1  19.7220
  1354 23.01  102.0000 101.5000  77.0000   C.3       1 RES1  23.0140
  1355 24.96  105.0000 102.0000  81.5000   C.3       1 RES1  24.9640
  1356 24.96  105.5000 102.0000  81.5000   C.3       1 RES1  24.9640
  1357 24.96  106.0000 102.0000  81.5000   C.3       1 RES1  24.9640
  1358 21.59  102.5000  97.0000  80.0000   C.3       1 RES1  21.5880
  1359 21.59  102.5000  97.0000  80.5000   C.3       1 RES1  21.5880
  1360 21.59  102.5000  97.0000  81.0000   C.3       1 RES1  21.5880
  1361 21.59  102.5000  97.5000  80.0000   C.3       1 RES1  21.5880
  1362 21.59  102.5000  97.5000  80.5000   C.3       1 RES1  21.5880
  1363 21.59  102.5000  97.5000  81.0000   C.3       1 RES1  21.5880
  1364 21.59  102.5000  98.0000  80.0000   C.3       1 RES1  21.5880
  1365 21.59  102.5000  98.0000  80.5000   C.3       1 RES1  21.5880
  1366 21.59  102.5000  98.0000  81.0000   C.3       1 RES1  21.5880
  1367 21.59  103.0000  97.0000  80.0000   C.3       1 RES1  21.5880
  1368 21.59  103.0000  97.0000  80.5000   C.3       1 RES1  21.5880
  1369 21.59  103.0000  97.0000  81.0000   C.3       1 RES1  21.5880
  1370 21.59  103.0000  97.5000  80.0000   C.3       1 RES1  21.5880
  1371 21.59  103.0000  97.5000  80.5000   C.3       1 RES1  21.5880
  1372 21.59  103.0000  97.5000  81.0000   C.3       1 RES1  21.5880
  1373 21.59  103.0000  98.0000  80.0000   C.3       1 RES1  21.5880
  1374 21.59  103.0000  98.0000  80.5000   C.3       1 RES1  21.5880
  1375 21.59  103.0000  98.0000  81.0000   C.3       1 RES1  21.5880
  1376 21.59  103.5000  97.0000  80.0000   C.3       1 RES1  21.5880
  1377 21.59  103.5000  97.0000  80.5000   C.3       1 RES1  21.5880
  1378 21.59  103.5000  97.0000  81.0000   C.3       1 RES1  21.5880
  1379 21.59  103.5000  97.5000  80.0000   C.3       1 RES1  21.5880
  1380 21.59  103.5000  97.5000  80.5000   C.3       1 RES1  21.5880
  1381 21.59  103.5000  97.5000  81.0000   C.3       1 RES1  21.5880
  1382 21.59  103.5000  98.0000  80.0000   C.3       1 RES1  21.5880
  1383 21.59  103.5000  98.0000  80.5000   C.3       1 RES1  21.5880
  1384 21.59  103.5000  98.0000  81.0000   C.3       1 RES1  21.5880
  1385 19.60   96.0000  99.5000  82.0000   C.3       1 RES1  19.6020
  1386 19.60   96.0000  99.5000  82.5000   C.3       1 RES1  19.6020
  1387 20.21  101.0000 104.5000  76.5000   C.3       1 RES1  20.2060
  1388 20.21  101.0000 104.5000  77.0000   C.3       1 RES1  20.2060
  1389 20.21  101.0000 104.5000  77.5000   C.3       1 RES1  20.2060
  1390 20.21  101.5000 104.5000  76.5000   C.3       1 RES1  20.2060
  1391 20.21  101.5000 104.5000  77.0000   C.3       1 RES1  20.2060
  1392 20.21  101.5000 104.5000  77.5000   C.3       1 RES1  20.2060
  1393 20.21  102.0000 104.5000  76.5000   C.3       1 RES1  20.2060
  1394 20.21  102.0000 104.5000  77.0000   C.3       1 RES1  20.2060
  1395 20.21  102.0000 104.5000  77.5000   C.3       1 RES1  20.2060
  1396 30.33  102.5000 101.0000  82.0000   C.3       1 RES1  30.3250
  1397 30.33  102.5000 101.5000  82.0000   C.3       1 RES1  30.3250
  1398 30.33  102.5000 102.0000  82.0000   C.3       1 RES1  30.3250
  1399 30.33  103.0000 101.0000  82.0000   C.3       1 RES1  30.3250
  1400 30.33  103.0000 101.5000  82.0000   C.3       1 RES1  30.3250
  1401 30.33  103.0000 102.0000  82.0000   C.3       1 RES1  30.3250
  1402 30.33  103.5000 101.0000  82.0000   C.3       1 RES1  30.3250
  1403 30.33  103.5000 101.5000  82.0000   C.3       1 RES1  30.3250
  1404 30.33  103.5000 102.0000  82.0000   C.3       1 RES1  30.3250
  1405 25.10  104.5000 102.0000  82.5000   C.3       1 RES1  25.1050
  1406 21.13   96.5000  99.5000  78.5000   C.3       1 RES1  21.1340
  1407 21.13   96.5000  99.5000  79.0000   C.3       1 RES1  21.1340
  1408 21.13   96.5000  99.5000  79.5000   C.3       1 RES1  21.1340
  1409 21.13   96.5000 100.0000  78.5000   C.3       1 RES1  21.1340
  1410 21.13   96.5000 100.0000  79.0000   C.3       1 RES1  21.1340
  1411 21.13   96.5000 100.0000  79.5000   C.3       1 RES1  21.1340
  1412 21.13   96.5000 100.5000  78.5000   C.3       1 RES1  21.1340
  1413 21.13   96.5000 100.5000  79.0000   C.3       1 RES1  21.1340
  1414 21.13   96.5000 100.5000  79.5000   C.3       1 RES1  21.1340
  1415 21.13   97.0000  99.5000  78.5000   C.3       1 RES1  21.1340
  1416 21.13   97.0000  99.5000  79.0000   C.3       1 RES1  21.1340
  1417 21.13   97.0000  99.5000  79.5000   C.3       1 RES1  21.1340
  1418 21.13   97.0000 100.0000  78.5000   C.3       1 RES1  21.1340
  1419 21.13   97.0000 100.0000  79.0000   C.3       1 RES1  21.1340
  1420 21.13   97.0000 100.0000  79.5000   C.3       1 RES1  21.1340
  1421 21.13   97.0000 100.5000  78.5000   C.3       1 RES1  21.1340
  1422 21.13   97.0000 100.5000  79.0000   C.3       1 RES1  21.1340
  1423 21.13   97.0000 100.5000  79.5000   C.3       1 RES1  21.1340
  1424 21.13   97.5000  99.5000  78.5000   C.3       1 RES1  21.1340
  1425 21.13   97.5000  99.5000  79.0000   C.3       1 RES1  21.1340
  1426 21.13   97.5000  99.5000  79.5000   C.3       1 RES1  21.1340
  1427 21.13   97.5000 100.0000  79.5000   C.3       1 RES1  21.1340
  1428 21.13   97.5000 100.5000  79.5000   C.3       1 RES1  21.1340
  1429 20.16   99.0000  94.5000  81.0000   C.3       1 RES1  20.1620
  1430 20.16   99.0000  94.5000  81.5000   C.3       1 RES1  20.1620
  1431 20.16   99.0000  94.5000  82.0000   C.3       1 RES1  20.1620
  1432 20.16   99.5000  94.5000  81.0000   C.3       1 RES1  20.1620
  1433 20.16   99.5000  94.5000  81.5000   C.3       1 RES1  20.1620
  1434 20.16   99.5000  94.5000  82.0000   C.3       1 RES1  20.1620
  1435 20.16  100.0000  94.5000  81.0000   C.3       1 RES1  20.1620
  1436 20.16  100.0000  94.5000  81.5000   C.3       1 RES1  20.1620
  1437 20.16  100.0000  94.5000  82.0000   C.3       1 RES1  20.1620
  1438 24.06  101.5000 102.0000  80.5000   C.3       1 RES1  24.0560
  1439 24.06  101.5000 102.0000  81.0000   C.3       1 RES1  24.0560
  1440 24.06  101.5000 102.0000  81.5000   C.3       1 RES1  24.0560
  1441 19.82  100.5000  97.0000  79.5000   C.3       1 RES1  19.8230
  1442 19.78   97.0000  92.0000  82.0000   C.3       1 RES1  19.7780
  1443 19.78   97.0000  92.0000  82.5000   C.3       1 RES1  19.7780
  1444 19.78   97.0000  92.0000  83.0000   C.3       1 RES1  19.7780
  1445 30.37  104.0000 101.5000  79.5000   C.3       1 RES1  30.3660
  1446 26.02  104.5000 102.5000  82.0000   C.3       1 RES1  26.0190
  1447 25.80  103.0000 100.5000  82.5000   C.3       1 RES1  25.8010
  1448 25.80  103.0000 101.0000  82.5000   C.3       1 RES1  25.8010
  1449 25.80  103.0000 101.5000  82.5000   C.3       1 RES1  25.8010
  1450 23.95  106.5000 101.0000  79.5000   C.3       1 RES1  23.9460
  1451 27.72  103.0000 100.0000  81.0000   C.3       1 RES1  27.7230
  1452 27.72  103.0000 100.0000  81.5000   C.3       1 RES1  27.7230
  1453 27.72  103.0000 100.0000  82.0000   C.3       1 RES1  27.7230
  1454 26.09  104.0000 101.5000  78.5000   C.3       1 RES1  26.0930
  1455 27.94  102.5000 101.0000  79.0000   C.3       1 RES1  27.9440
  1456 27.94  103.0000 101.0000  79.0000   C.3       1 RES1  27.9440
  1457 27.94  103.5000 101.0000  79.0000   C.3       1 RES1  27.9440
  1458 20.59  100.0000 100.0000  81.5000   C.3       1 RES1  20.5930
  1459 20.59  100.0000 100.5000  81.5000   C.3       1 RES1  20.5930
  1460 20.59  100.0000 101.0000  81.5000   C.3       1 RES1  20.5930
  1461 19.85  101.0000 102.5000  79.0000   C.3       1 RES1  19.8550
  1462 22.26   98.0000 100.0000  77.5000   C.3       1 RES1  22.2650
  1463 22.26   98.0000 100.0000  78.0000   C.3       1 RES1  22.2650
  1464 22.26   98.0000 100.0000  78.5000   C.3       1 RES1  22.2650
  1465 22.26   98.0000 100.5000  77.5000   C.3       1 RES1  22.2650
  1466 22.26   98.0000 100.5000  78.0000   C.3       1 RES1  22.2650
  1467 22.26   98.0000 100.5000  78.5000   C.3       1 RES1  22.2650
  1468 22.26   98.0000 101.0000  77.5000   C.3       1 RES1  22.2650
  1469 22.26   98.0000 101.0000  78.0000   C.3       1 RES1  22.2650
  1470 22.26   98.0000 101.0000  78.5000   C.3       1 RES1  22.2650
  1471 19.76  105.0000 100.0000  80.0000   C.3       1 RES1  19.7640
  1472 21.03  106.5000 102.5000  81.5000   C.3       1 RES1  21.0330
  1473 28.77  105.0000 100.0000  81.0000   C.3       1 RES1  28.7730
  1474 28.77  105.0000 100.5000  81.0000   C.3       1 RES1  28.7730
  1475 28.77  105.0000 101.0000  81.0000   C.3       1 RES1  28.7730
  1476 28.77  105.5000 100.0000  81.0000   C.3       1 RES1  28.7730
  1477 28.77  105.5000 100.5000  81.0000   C.3       1 RES1  28.7730
  1478 28.77  105.5000 101.0000  81.0000   C.3       1 RES1  28.7730
  1479 22.18   96.5000  98.0000  81.5000   C.3       1 RES1  22.1840
  1480 22.18   96.5000  98.0000  82.0000   C.3       1 RES1  22.1840
  1481 22.18   96.5000  98.0000  82.5000   C.3       1 RES1  22.1840
  1482 22.18   97.0000  98.0000  81.5000   C.3       1 RES1  22.1840
  1483 22.18   97.5000  98.0000  81.5000   C.3       1 RES1  22.1840
  1484 22.96  104.0000 100.5000  79.5000   C.3       1 RES1  22.9580
  1485 20.89  101.5000 102.0000  82.0000   C.3       1 RES1  20.8850
  1486 20.89   96.5000  96.0000  79.5000   C.3       1 RES1  20.8900
  1487 20.89   96.5000  96.0000  80.0000   C.3       1 RES1  20.8900
  1488 20.89   96.5000  96.0000  80.5000   C.3       1 RES1  20.8900
  1489 20.89   96.5000  96.5000  79.5000   C.3       1 RES1  20.8900
  1490 20.89   96.5000  96.5000  80.0000   C.3       1 RES1  20.8900
  1491 20.89   96.5000  96.5000  80.5000   C.3       1 RES1  20.8900
  1492 20.89   96.5000  97.0000  79.5000   C.3       1 RES1  20.8900
  1493 20.89   96.5000  97.0000  80.0000   C.3       1 RES1  20.8900
  1494 20.89   96.5000  97.0000  80.5000   C.3       1 RES1  20.8900
  1495 20.89   97.0000  96.0000  79.5000   C.3       1 RES1  20.8900
  1496 20.89   97.0000  96.0000  80.0000   C.3       1 RES1  20.8900
  1497 20.89   97.0000  96.0000  80.5000   C.3       1 RES1  20.8900
  1498 20.89   97.0000  96.5000  79.5000   C.3       1 RES1  20.8900
  1499 20.89   97.0000  96.5000  80.0000   C.3       1 RES1  20.8900
  1500 20.89   97.0000  96.5000  80.5000   C.3       1 RES1  20.8900
  1501 20.89   97.0000  97.0000  79.5000   C.3       1 RES1  20.8900
  1502 20.89   97.0000  97.0000  80.0000   C.3       1 RES1  20.8900
  1503 20.89   97.0000  97.0000  80.5000   C.3       1 RES1  20.8900
  1504 20.89   97.5000  96.0000  79.5000   C.3       1 RES1  20.8900
  1505 20.89   97.5000  96.0000  80.0000   C.3       1 RES1  20.8900
  1506 20.89   97.5000  96.0000  80.5000   C.3       1 RES1  20.8900
  1507 20.89   97.5000  96.5000  79.5000   C.3       1 RES1  20.8900
  1508 20.89   97.5000  96.5000  80.0000   C.3       1 RES1  20.8900
  1509 20.89   97.5000  96.5000  80.5000   C.3       1 RES1  20.8900
  1510 20.89   97.5000  97.0000  79.5000   C.3       1 RES1  20.8900
  1511 20.89   97.5000  97.0000  80.0000   C.3       1 RES1  20.8900
  1512 20.89   97.5000  97.0000  80.5000   C.3       1 RES1  20.8900
  1513 22.40  106.0000 100.0000  80.5000   C.3       1 RES1  22.3990
  1514 21.26  101.5000 100.5000  79.5000   C.3       1 RES1  21.2650
  1515 22.17   99.5000 102.0000  77.0000   C.3       1 RES1  22.1750
  1516 22.17   99.5000 102.0000  77.5000   C.3       1 RES1  22.1750
  1517 22.17   99.5000 102.0000  78.0000   C.3       1 RES1  22.1750
  1518 19.61  106.5000 102.0000  82.0000   C.3       1 RES1  19.6060
  1519 20.71   95.5000  92.0000  82.0000   C.3       1 RES1  20.7140
  1520 20.71   95.5000  92.0000  82.5000   C.3       1 RES1  20.7140
  1521 20.71   95.5000  92.0000  83.0000   C.3       1 RES1  20.7140
  1522 20.71   95.5000  92.5000  82.0000   C.3       1 RES1  20.7140
  1523 20.71   95.5000  92.5000  82.5000   C.3       1 RES1  20.7140
  1524 20.71   95.5000  92.5000  83.0000   C.3       1 RES1  20.7140
  1525 20.71   95.5000  93.0000  82.0000   C.3       1 RES1  20.7140
  1526 20.71   95.5000  93.0000  82.5000   C.3       1 RES1  20.7140
  1527 20.71   95.5000  93.0000  83.0000   C.3       1 RES1  20.7140
  1528 20.71   96.0000  92.0000  82.0000   C.3       1 RES1  20.7140
  1529 20.71   96.0000  92.0000  82.5000   C.3       1 RES1  20.7140
  1530 20.71   96.0000  92.0000  83.0000   C.3       1 RES1  20.7140
  1531 20.71   96.0000  92.5000  82.0000   C.3       1 RES1  20.7140
  1532 20.71   96.0000  92.5000  82.5000   C.3       1 RES1  20.7140
  1533 20.71   96.0000  92.5000  83.0000   C.3       1 RES1  20.7140
  1534 20.71   96.0000  93.0000  82.0000   C.3       1 RES1  20.7140
  1535 20.71   96.0000  93.0000  82.5000   C.3       1 RES1  20.7140
  1536 20.71   96.0000  93.0000  83.0000   C.3       1 RES1  20.7140
  1537 20.71   96.5000  92.0000  82.0000   C.3       1 RES1  20.7140
  1538 20.71   96.5000  92.0000  82.5000   C.3       1 RES1  20.7140
  1539 20.71   96.5000  92.0000  83.0000   C.3       1 RES1  20.7140
  1540 20.71   96.5000  92.5000  82.0000   C.3       1 RES1  20.7140
  1541 20.71   96.5000  92.5000  82.5000   C.3       1 RES1  20.7140
  1542 20.71   96.5000  92.5000  83.0000   C.3       1 RES1  20.7140
  1543 20.71   96.5000  93.0000  82.0000   C.3       1 RES1  20.7140
  1544 20.71   96.5000  93.0000  82.5000   C.3       1 RES1  20.7140
  1545 20.71   96.5000  93.0000  83.0000   C.3       1 RES1  20.7140
  1546 26.30  102.0000 101.0000  79.0000   C.3       1 RES1  26.2980
  1547 19.52   99.0000 101.0000  80.0000   C.3       1 RES1  19.5160
  1548 19.55  102.0000 103.5000  80.5000   C.3       1 RES1  19.5520
  1549 19.55  102.0000 103.5000  81.0000   C.3       1 RES1  19.5520
  1550 24.42  103.5000  99.5000  82.5000   C.3       1 RES1  24.4240
  1551 25.45  102.0000 101.0000  78.5000   C.3       1 RES1  25.4550
  1552 21.00   99.0000 102.0000  77.0000   C.3       1 RES1  21.0040
  1553 21.00   99.0000 102.0000  77.5000   C.3       1 RES1  21.0040
  1554 21.00   99.0000 102.0000  78.0000   C.3       1 RES1  21.0040
  1555 20.20   98.5000  99.5000  77.5000   C.3       1 RES1  20.1960
  1556 20.20   99.0000  99.5000  77.5000   C.3       1 RES1  20.1960
  1557 20.20   99.5000  99.5000  77.5000   C.3       1 RES1  20.1960
  1558 20.67   98.5000  99.5000  79.5000   C.3       1 RES1  20.6720
  1559 24.92  104.5000  99.5000  80.5000   C.3       1 RES1  24.9220
  1560 21.09  103.0000 102.0000  76.0000   C.3       1 RES1  21.0940
  1561 21.09  103.0000 102.0000  76.5000   C.3       1 RES1  21.0940
  1562 23.66  102.5000 101.0000  82.5000   C.3       1 RES1  23.6640
  1563 23.66  102.5000 101.5000  82.5000   C.3       1 RES1  23.6640
  1564 23.66  102.5000 102.0000  82.5000   C.3       1 RES1  23.6640
  1565 29.27  104.0000 100.5000  80.5000   C.3       1 RES1  29.2700
  1566 29.27  104.0000 100.5000  81.0000   C.3       1 RES1  29.2700
  1567 29.20  103.5000 100.5000  82.0000   C.3       1 RES1  29.2050
  1568 29.20  104.5000 100.5000  81.0000   C.3       1 RES1  29.2050
  1569 29.20  104.5000 101.0000  81.0000   C.3       1 RES1  29.2050
  1570 29.20  104.5000 101.5000  81.0000   C.3       1 RES1  29.2050
  1571 29.20  104.5000 101.5000  81.5000   C.3       1 RES1  29.2050
  1572 29.20  104.5000 101.5000  82.0000   C.3       1 RES1  29.2050
  1573 23.24  101.5000 103.0000  79.0000   C.3       1 RES1  23.2440
  1574 21.39  103.0000  98.5000  82.0000   C.3       1 RES1  21.3860
  1575 25.58  103.0000  99.5000  82.0000   C.3       1 RES1  25.5810
  1576 24.58  106.0000  99.5000  81.5000   C.3       1 RES1  24.5790
  1577 24.58  106.0000  99.5000  82.0000   C.3       1 RES1  24.5790
  1578 24.58  106.0000  99.5000  82.5000   C.3       1 RES1  24.5790
  1579 19.46   99.0000  94.5000  80.5000   C.3       1 RES1  19.4640
  1580 19.46   99.0000  95.0000  80.5000   C.3       1 RES1  19.4640
  1581 19.46   99.0000  95.5000  80.5000   C.3       1 RES1  19.4640
  1582 19.46   99.5000  94.5000  80.5000   C.3       1 RES1  19.4640
  1583 19.46   99.5000  95.0000  80.5000   C.3       1 RES1  19.4640
  1584 19.46   99.5000  95.5000  80.5000   C.3       1 RES1  19.4640
  1585 19.46  100.0000  94.5000  80.5000   C.3       1 RES1  19.4640
  1586 19.46  100.0000  95.0000  80.5000   C.3       1 RES1  19.4640
  1587 19.46  100.0000  95.5000  80.5000   C.3       1 RES1  19.4640
  1588 23.66  102.5000 100.5000  79.5000   C.3       1 RES1  23.6620
  1589 23.66  103.0000 100.5000  79.5000   C.3       1 RES1  23.6620
  1590 23.66  103.5000 100.5000  79.5000   C.3       1 RES1  23.6620
  1591 20.39   99.5000 102.0000  78.5000   C.3       1 RES1  20.3860
  1592 25.99  105.0000 100.5000  80.5000   C.3       1 RES1  25.9930
  1593 25.99  105.0000 101.0000  80.5000   C.3       1 RES1  25.9930
  1594 19.95  102.0000 103.0000  76.0000   C.3       1 RES1  19.9510
  1595 22.63  100.5000 103.0000  77.5000   C.3       1 RES1  22.6310
  1596 25.48  105.5000  99.5000  81.0000   C.3       1 RES1  25.4840
  1597 20.65  100.0000 101.5000  79.5000   C.3       1 RES1  20.6530
  1598 21.55  101.5000 101.5000  76.0000   C.3       1 RES1  21.5530
  1599 21.55  101.5000 102.0000  76.0000   C.3       1 RES1  21.5530
  1600 21.55  102.0000 102.0000  76.0000   C.3       1 RES1  21.5530
  1601 21.55  102.5000 102.0000  76.0000   C.3       1 RES1  21.5530
  1602 19.96  106.5000 100.0000  82.5000   C.3       1 RES1  19.9570
  1603 19.96  106.5000 100.5000  82.5000   C.3       1 RES1  19.9570
  1604 19.96  106.5000 101.0000  82.5000   C.3       1 RES1  19.9570
  1605 19.46  104.5000  98.0000  80.5000   C.3       1 RES1  19.4590
  1606 19.89  100.0000 100.5000  82.5000   C.3       1 RES1  19.8910
  1607 19.89  100.5000 100.5000  82.5000   C.3       1 RES1  19.8910
  1608 19.67  103.0000  99.5000  76.5000   C.3       1 RES1  19.6730
  1609 19.67  103.0000  99.5000  77.0000   C.3       1 RES1  19.6730
  1610 19.67  103.0000  99.5000  77.5000   C.3       1 RES1  19.6730
  1611 19.67  105.5000  99.5000  80.5000   C.3       1 RES1  19.6730
  1612 19.81   98.0000  97.0000  81.0000   C.3       1 RES1  19.8120
  1613 19.81   98.0000  97.5000  81.0000   C.3       1 RES1  19.8120
  1614 19.81   98.0000  98.0000  81.0000   C.3       1 RES1  19.8120
  1615 19.81  107.0000 101.0000  79.5000   C.3       1 RES1  19.8120
  1616 19.81  107.0000 101.5000  79.5000   C.3       1 RES1  19.8120
  1617 19.81  107.0000 102.0000  79.5000   C.3       1 RES1  19.8120
  1618 20.89   98.0000  99.5000  79.5000   C.3       1 RES1  20.8930
  1619 20.89   98.0000 100.0000  79.5000   C.3       1 RES1  20.8930
  1620 20.89   98.0000 100.5000  79.5000   C.3       1 RES1  20.8930
  1621 20.88  102.0000 100.5000  82.5000   C.3       1 RES1  20.8820
  1622 20.88  102.0000 101.0000  82.5000   C.3       1 RES1  20.8820
  1623 20.88  102.0000 101.5000  82.5000   C.3       1 RES1  20.8820
  1624 21.87  101.5000  98.5000  80.5000   C.3       1 RES1  21.8730
  1625 21.87  101.5000  98.5000  81.0000   C.3       1 RES1  21.8730
  1626 21.87  101.5000  98.5000  81.5000   C.3       1 RES1  21.8730
  1627 21.87  101.5000  99.0000  80.5000   C.3       1 RES1  21.8730
  1628 21.87  101.5000  99.0000  81.0000   C.3       1 RES1  21.8730
  1629 21.87  101.5000  99.0000  81.5000   C.3       1 RES1  21.8730
  1630 21.87  101.5000  99.5000  80.5000   C.3       1 RES1  21.8730
  1631 21.87  101.5000  99.5000  81.0000   C.3       1 RES1  21.8730
  1632 21.87  101.5000  99.5000  81.5000   C.3       1 RES1  21.8730
  1633 23.62  101.5000 102.0000  80.0000   C.3       1 RES1  23.6200
  1634 28.46  103.5000 100.5000  82.5000   C.3       1 RES1  28.4600
  1635 28.46  103.5000 101.0000  82.5000   C.3       1 RES1  28.4600
  1636 28.46  103.5000 101.5000  82.5000   C.3       1 RES1  28.4600
  1637 28.39  102.5000 101.5000  78.5000   C.3       1 RES1  28.3910
  1638 28.39  103.0000 101.5000  78.5000   C.3       1 RES1  28.3910
  1639 28.39  103.5000 101.5000  78.5000   C.3       1 RES1  28.3910
  1640 20.72  101.0000 102.0000  79.0000   C.3       1 RES1  20.7150
  1641 28.23  104.5000 101.0000  80.5000   C.3       1 RES1  28.2310
  1642 28.23  104.5000 102.0000  81.0000   C.3       1 RES1  28.2310
  1643 28.23  104.5000 102.0000  81.5000   C.3       1 RES1  28.2310
  1644 31.95  103.0000 101.0000  80.5000   C.3       1 RES1  31.9470
  1645 31.95  103.0000 101.0000  81.0000   C.3       1 RES1  31.9470
  1646 31.95  103.0000 101.0000  81.5000   C.3       1 RES1  31.9470
  1647 31.95  103.5000 101.0000  80.5000   C.3       1 RES1  31.9470
  1648 31.95  103.5000 101.0000  81.0000   C.3       1 RES1  31.9470
  1649 31.95  103.5000 101.0000  81.5000   C.3       1 RES1  31.9470
  1650 31.95  104.0000 101.0000  80.5000   C.3       1 RES1  31.9470
  1651 31.95  104.0000 101.0000  81.0000   C.3       1 RES1  31.9470
  1652 31.95  104.0000 101.0000  81.5000   C.3       1 RES1  31.9470
  1653 20.51   99.0000 100.0000  79.5000   C.3       1 RES1  20.5120
  1654 20.51   99.0000 100.5000  79.5000   C.3       1 RES1  20.5120
  1655 20.51   99.0000 101.0000  79.5000   C.3       1 RES1  20.5120
  1656 23.13  102.0000  99.5000  82.0000   C.3       1 RES1  23.1330
  1657 22.56  102.5000  99.0000  77.5000   C.3       1 RES1  22.5630
  1658 22.56  102.5000  99.5000  77.5000   C.3       1 RES1  22.5630
  1659 22.56  102.5000 100.0000  77.5000   C.3       1 RES1  22.5630
  1660 24.05  101.5000 100.5000  80.0000   C.3       1 RES1  24.0510
  1661 24.05  101.5000 101.0000  80.0000   C.3       1 RES1  24.0510
  1662 24.05  101.5000 101.5000  80.0000   C.3       1 RES1  24.0510
  1663 20.51   96.0000  98.0000  81.5000   C.3       1 RES1  20.5070
  1664 20.51   96.0000  98.0000  82.0000   C.3       1 RES1  20.5070
  1665 20.51   96.0000  98.0000  82.5000   C.3       1 RES1  20.5070
  1666 20.51   96.0000  98.5000  81.5000   C.3       1 RES1  20.5070
  1667 20.51   96.0000  98.5000  82.0000   C.3       1 RES1  20.5070
  1668 20.51   96.0000  98.5000  82.5000   C.3       1 RES1  20.5070
  1669 20.51   96.0000  99.0000  81.5000   C.3       1 RES1  20.5070
  1670 20.51   96.0000  99.0000  82.0000   C.3       1 RES1  20.5070
  1671 20.51   96.0000  99.0000  82.5000   C.3       1 RES1  20.5070
  1672 19.46   95.5000  93.5000  82.0000   C.3       1 RES1  19.4620
  1673 19.46   95.5000  93.5000  82.5000   C.3       1 RES1  19.4620
  1674 19.46  102.5000  97.0000  81.5000   C.3       1 RES1  19.4620
  1675 19.46  102.5000  97.5000  81.5000   C.3       1 RES1  19.4620
  1676 19.46  103.0000  97.0000  81.5000   C.3       1 RES1  19.4620
  1677 19.46  103.0000  97.5000  81.5000   C.3       1 RES1  19.4620
  1678 19.46  103.5000  97.0000  81.5000   C.3       1 RES1  19.4620
  1679 19.46  103.5000  97.5000  81.5000   C.3       1 RES1  19.4620
  1680 24.38  102.0000  99.0000  80.5000   C.3       1 RES1  24.3780
  1681 24.38  102.0000  99.0000  81.0000   C.3       1 RES1  24.3780
  1682 24.38  102.0000  99.0000  81.5000   C.3       1 RES1  24.3780
  1683 24.38  102.0000  99.5000  80.5000   C.3       1 RES1  24.3780
  1684 24.38  102.0000  99.5000  81.0000   C.3       1 RES1  24.3780
  1685 24.38  102.0000  99.5000  81.5000   C.3       1 RES1  24.3780
  1686 24.38  102.0000 100.0000  80.5000   C.3       1 RES1  24.3780
  1687 24.38  102.0000 100.0000  81.0000   C.3       1 RES1  24.3780
  1688 24.38  102.0000 100.0000  81.5000   C.3       1 RES1  24.3780
  1689 27.34  103.5000 100.0000  82.5000   C.3       1 RES1  27.3390
  1690 22.25  102.0000 100.5000  79.0000   C.3       1 RES1  22.2520
  1691 20.45   97.0000  99.5000  78.0000   C.3       1 RES1  20.4530
  1692 19.62   97.5000  96.0000  83.0000   C.3       1 RES1  19.6220
  1693 19.62   97.5000  96.5000  83.0000   C.3       1 RES1  19.6220
  1694 19.62   97.5000  97.0000  83.0000   C.3       1 RES1  19.6220
  1695 19.62   98.0000  96.0000  83.0000   C.3       1 RES1  19.6220
  1696 19.62   98.0000  96.5000  83.0000   C.3       1 RES1  19.6220
  1697 19.62   98.0000  97.0000  83.0000   C.3       1 RES1  19.6220
  1698 19.62   98.5000  96.0000  83.0000   C.3       1 RES1  19.6220
  1699 19.62   98.5000  96.5000  83.0000   C.3       1 RES1  19.6220
  1700 19.62   98.5000  97.0000  83.0000   C.3       1 RES1  19.6220
  1701 27.55  102.0000 101.0000  80.0000   C.3       1 RES1  27.5490
  1702 19.87  104.0000  99.5000  79.5000   C.3       1 RES1  19.8710
  1703 21.70  106.0000 101.5000  83.0000   C.3       1 RES1  21.7020
  1704 19.82  105.5000 102.0000  82.5000   C.3       1 RES1  19.8180
  1705 20.45  104.5000 104.0000  79.5000   C.3       1 RES1  20.4510
  1706 20.45  104.5000 104.0000  80.0000   C.3       1 RES1  20.4510
  1707 20.45  104.5000 104.0000  80.5000   C.3       1 RES1  20.4510
  1708 22.17  101.5000 101.0000  79.5000   C.3       1 RES1  22.1690
  1709 19.93   98.5000 100.5000  77.0000   C.3       1 RES1  19.9340
  1710 19.93   98.5000 101.0000  77.0000   C.3       1 RES1  19.9340
  1711 19.93   98.5000 101.5000  77.0000   C.3       1 RES1  19.9340
  1712 25.22  102.5000 100.0000  82.0000   C.3       1 RES1  25.2160
  1713 19.53   95.0000  91.5000  82.0000   C.3       1 RES1  19.5310
  1714 19.53   95.0000  91.5000  82.5000   C.3       1 RES1  19.5310
  1715 19.53   95.0000  92.0000  82.0000   C.3       1 RES1  19.5310
  1716 19.53   95.0000  92.0000  82.5000   C.3       1 RES1  19.5310
  1717 19.53   95.0000  92.0000  83.0000   C.3       1 RES1  19.5310
  1718 19.53   95.0000  92.5000  82.0000   C.3       1 RES1  19.5310
  1719 19.53   95.0000  92.5000  82.5000   C.3       1 RES1  19.5310
  1720 19.53   95.0000  92.5000  83.0000   C.3       1 RES1  19.5310
  1721 19.65   98.0000  99.0000  79.0000   C.3       1 RES1  19.6510
  1722 19.65   98.0000  99.0000  79.5000   C.3       1 RES1  19.6510
  1723 27.70  102.5000 102.5000  82.0000   C.3       1 RES1  27.7000
  1724 20.36  100.5000 104.0000  76.5000   C.3       1 RES1  20.3620
  1725 20.36  100.5000 104.0000  77.0000   C.3       1 RES1  20.3620
  1726 20.36  100.5000 104.0000  77.5000   C.3       1 RES1  20.3620
  1727 20.42   98.0000  99.5000  80.0000   C.3       1 RES1  20.4250
  1728 20.42   98.0000 100.0000  80.0000   C.3       1 RES1  20.4250
  1729 20.42   98.0000 100.5000  80.0000   C.3       1 RES1  20.4250
  1730 20.13  100.5000 102.0000  79.0000   C.3       1 RES1  20.1300
  1731 25.62  103.0000 103.5000  81.5000   C.3       1 RES1  25.6220
  1732 25.62  103.5000 103.5000  81.5000   C.3       1 RES1  25.6220
  1733 25.62  104.0000 103.5000  81.5000   C.3       1 RES1  25.6220
  1734 23.84  102.5000 100.0000  80.0000   C.3       1 RES1  23.8360
  1735 23.84  103.0000 100.0000  80.0000   C.3       1 RES1  23.8360
  1736 23.84  103.5000 100.0000  80.0000   C.3       1 RES1  23.8360
  1737 23.02  102.5000  98.5000  78.0000   C.3       1 RES1  23.0220
  1738 23.02  102.5000  98.5000  78.5000   C.3       1 RES1  23.0220
  1739 23.02  102.5000  98.5000  79.0000   C.3       1 RES1  23.0220
  1740 23.02  102.5000  99.0000  78.0000   C.3       1 RES1  23.0220
  1741 23.02  102.5000  99.0000  78.5000   C.3       1 RES1  23.0220
  1742 23.02  102.5000  99.0000  79.0000   C.3       1 RES1  23.0220
  1743 23.02  102.5000  99.5000  78.0000   C.3       1 RES1  23.0220
  1744 23.02  102.5000  99.5000  78.5000   C.3       1 RES1  23.0220
  1745 23.02  102.5000  99.5000  79.0000   C.3       1 RES1  23.0220
  1746 23.02  104.5000 100.5000  80.0000   C.3       1 RES1  23.0220
  1747 22.00  102.0000 100.0000  76.0000   C.3       1 RES1  21.9990
  1748 22.00  102.0000 100.0000  76.5000   C.3       1 RES1  21.9990
  1749 22.00  102.0000 100.5000  76.0000   C.3       1 RES1  21.9990
  1750 22.00  102.0000 100.5000  76.5000   C.3       1 RES1  21.9990
  1751 22.00  102.0000 101.0000  76.0000   C.3       1 RES1  21.9990
  1752 22.00  102.0000 101.0000  76.5000   C.3       1 RES1  21.9990
  1753 22.00  102.5000 100.0000  76.0000   C.3       1 RES1  21.9990
  1754 22.00  102.5000 100.0000  76.5000   C.3       1 RES1  21.9990
  1755 22.00  102.5000 100.0000  77.0000   C.3       1 RES1  21.9990
  1756 22.00  102.5000 100.5000  76.0000   C.3       1 RES1  21.9990
  1757 22.00  102.5000 100.5000  76.5000   C.3       1 RES1  21.9990
  1758 22.00  102.5000 100.5000  77.0000   C.3       1 RES1  21.9990
  1759 22.00  102.5000 101.0000  76.0000   C.3       1 RES1  21.9990
  1760 22.00  102.5000 101.0000  76.5000   C.3       1 RES1  21.9990
  1761 22.00  102.5000 101.0000  77.0000   C.3       1 RES1  21.9990
  1762 22.00  103.0000 100.0000  76.0000   C.3       1 RES1  21.9990
  1763 22.00  103.0000 100.0000  76.5000   C.3       1 RES1  21.9990
  1764 22.00  103.0000 100.0000  77.0000   C.3       1 RES1  21.9990
  1765 22.00  103.0000 100.5000  76.0000   C.3       1 RES1  21.9990
  1766 22.00  103.0000 100.5000  76.5000   C.3       1 RES1  21.9990
  1767 22.00  103.0000 100.5000  77.0000   C.3       1 RES1  21.9990
  1768 22.00  103.0000 101.0000  76.0000   C.3       1 RES1  21.9990
  1769 22.00  103.0000 101.0000  76.5000   C.3       1 RES1  21.9990
  1770 22.00  103.0000 101.0000  77.0000   C.3       1 RES1  21.9990
  1771 21.01   96.5000  98.0000  83.0000   C.3       1 RES1  21.0080
  1772 21.01   96.5000  98.5000  83.0000   C.3       1 RES1  21.0080
  1773 21.01   96.5000  99.0000  83.0000   C.3       1 RES1  21.0080
  1774 20.94   98.0000  99.5000  81.5000   C.3       1 RES1  20.9400
  1775 21.61  103.0000 104.0000  80.0000   C.3       1 RES1  21.6150
  1776 21.61  103.0000 104.0000  80.5000   C.3       1 RES1  21.6150
  1777 21.61  103.0000 104.0000  81.0000   C.3       1 RES1  21.6150
  1778 21.61  103.5000 104.0000  80.0000   C.3       1 RES1  21.6150
  1779 21.61  103.5000 104.0000  80.5000   C.3       1 RES1  21.6150
  1780 21.61  103.5000 104.0000  81.0000   C.3       1 RES1  21.6150
  1781 21.61  104.0000 104.0000  80.0000   C.3       1 RES1  21.6150
  1782 21.61  104.0000 104.0000  80.5000   C.3       1 RES1  21.6150
  1783 21.61  104.0000 104.0000  81.0000   C.3       1 RES1  21.6150
  1784 23.39  104.5000  99.0000  80.5000   C.3       1 RES1  23.3900
  1785 23.39  104.5000  99.0000  81.0000   C.3       1 RES1  23.3900
  1786 23.39  104.5000  99.0000  81.5000   C.3       1 RES1  23.3900
  1787 21.09  102.5000  98.5000  80.0000   C.3       1 RES1  21.0910
  1788 21.09  103.0000  98.5000  80.0000   C.3       1 RES1  21.0910
  1789 31.50  102.5000 101.5000  80.0000   C.3       1 RES1  31.5030
  1790 31.50  102.5000 102.0000  80.0000   C.3       1 RES1  31.5030
  1791 31.50  102.5000 102.5000  80.0000   C.3       1 RES1  31.5030
  1792 31.50  102.5000 102.5000  80.5000   C.3       1 RES1  31.5030
  1793 31.50  102.5000 102.5000  81.0000   C.3       1 RES1  31.5030
  1794 31.50  103.0000 101.5000  80.0000   C.3       1 RES1  31.5030
  1795 31.50  103.0000 102.0000  80.0000   C.3       1 RES1  31.5030
  1796 31.50  103.0000 102.5000  80.0000   C.3       1 RES1  31.5030
  1797 31.50  103.5000 101.5000  80.0000   C.3       1 RES1  31.5030
  1798 31.50  103.5000 102.0000  80.0000   C.3       1 RES1  31.5030
  1799 31.50  103.5000 102.5000  80.0000   C.3       1 RES1  31.5030
  1800 22.10  105.0000  99.5000  80.5000   C.3       1 RES1  22.1000
  1801 26.55  102.0000 101.0000  82.0000   C.3       1 RES1  26.5500
  1802 26.55  102.0000 101.5000  82.0000   C.3       1 RES1  26.5500
  1803 26.55  102.0000 102.0000  82.0000   C.3       1 RES1  26.5500
  1804 31.43  102.5000 102.5000  81.5000   C.3       1 RES1  31.4310
  1805 19.93  100.0000 101.5000  80.0000   C.3       1 RES1  19.9300
  1806 19.93  100.0000 101.5000  80.5000   C.3       1 RES1  19.9300
  1807 19.93  100.0000 101.5000  81.0000   C.3       1 RES1  19.9300
  1808 22.68  105.5000 100.5000  80.0000   C.3       1 RES1  22.6820
  1809 22.68  106.0000 100.5000  80.0000   C.3       1 RES1  22.6820
  1810 22.68  106.5000 100.5000  80.0000   C.3       1 RES1  22.6820
  1811 20.18  105.0000 100.5000  79.5000   C.3       1 RES1  20.1800
  1812 24.34  106.0000 100.0000  83.0000   C.3       1 RES1  24.3420
  1813 24.34  106.0000 100.5000  83.0000   C.3       1 RES1  24.3420
  1814 24.34  106.0000 101.0000  83.0000   C.3       1 RES1  24.3420
  1815 21.05  106.0000  99.5000  83.0000   C.3       1 RES1  21.0460
  1816 23.67  101.0000 102.0000  76.5000   C.3       1 RES1  23.6700
  1817 23.67  101.0000 102.5000  76.5000   C.3       1 RES1  23.6700
  1818 23.67  101.0000 103.0000  76.5000   C.3       1 RES1  23.6700
  1819 23.67  101.5000 102.0000  76.5000   C.3       1 RES1  23.6700
  1820 23.67  101.5000 102.5000  76.5000   C.3       1 RES1  23.6700
  1821 23.67  101.5000 103.0000  76.5000   C.3       1 RES1  23.6700
  1822 23.67  102.0000 102.0000  76.5000   C.3       1 RES1  23.6700
  1823 23.67  102.0000 102.5000  76.5000   C.3       1 RES1  23.6700
  1824 23.67  102.0000 103.0000  76.5000   C.3       1 RES1  23.6700
  1825 25.72  103.0000 102.0000  82.5000   C.3       1 RES1  25.7170
  1826 25.72  103.5000 102.0000  82.5000   C.3       1 RES1  25.7170
  1827 25.72  104.0000 102.0000  82.5000   C.3       1 RES1  25.7170
  1828 20.22  102.0000  98.0000  78.0000   C.3       1 RES1  20.2170
  1829 26.25  102.0000 100.5000  80.5000   C.3       1 RES1  26.2450
  1830 26.25  102.0000 100.5000  81.0000   C.3       1 RES1  26.2450
  1831 26.25  102.0000 100.5000  81.5000   C.3       1 RES1  26.2450
  1832 22.04  101.0000 102.0000  78.5000   C.3       1 RES1  22.0400
  1833 22.04  101.0000 102.5000  78.5000   C.3       1 RES1  22.0400
  1834 22.04  101.0000 103.0000  78.5000   C.3       1 RES1  22.0400
  1835 21.09  103.5000  99.0000  79.5000   C.3       1 RES1  21.0890
  1836 21.96  102.5000  98.5000  77.5000   C.3       1 RES1  21.9620
  1837 21.17  100.5000 100.5000  79.5000   C.3       1 RES1  21.1690
  1838 21.17  100.5000 101.0000  79.5000   C.3       1 RES1  21.1690
  1839 21.17  100.5000 101.5000  79.5000   C.3       1 RES1  21.1690
  1840 21.17  101.0000 100.5000  79.5000   C.3       1 RES1  21.1690
  1841 21.17  101.0000 101.0000  79.5000   C.3       1 RES1  21.1690
  1842 21.17  101.0000 101.5000  79.5000   C.3       1 RES1  21.1690
  1843 22.23   97.0000  98.0000  82.0000   C.3       1 RES1  22.2270
  1844 22.23   97.0000  98.0000  82.5000   C.3       1 RES1  22.2270
  1845 22.23   97.0000  98.0000  83.0000   C.3       1 RES1  22.2270
  1846 22.23   97.0000  98.5000  83.0000   C.3       1 RES1  22.2270
  1847 22.23   97.0000  99.0000  83.0000   C.3       1 RES1  22.2270
  1848 22.23   97.5000  98.0000  82.0000   C.3       1 RES1  22.2270
  1849 22.23   97.5000  98.0000  82.5000   C.3       1 RES1  22.2270
  1850 22.23   97.5000  98.0000  83.0000   C.3       1 RES1  22.2270
  1851 22.23   97.5000  98.5000  83.0000   C.3       1 RES1  22.2270
  1852 22.23   97.5000  99.0000  83.0000   C.3       1 RES1  22.2270
  1853 22.23   98.0000  98.0000  82.0000   C.3       1 RES1  22.2270
  1854 22.23   98.0000  98.0000  82.5000   C.3       1 RES1  22.2270
  1855 22.23   98.0000  98.0000  83.0000   C.3       1 RES1  22.2270
  1856 22.23   98.0000  98.5000  82.0000   C.3       1 RES1  22.2270
  1857 22.23   98.0000  98.5000  82.5000   C.3       1 RES1  22.2270
  1858 22.23   98.0000  98.5000  83.0000   C.3       1 RES1  22.2270
  1859 22.23   98.0000  99.0000  82.0000   C.3       1 RES1  22.2270
  1860 22.23   98.0000  99.0000  82.5000   C.3       1 RES1  22.2270
  1861 22.23   98.0000  99.0000  83.0000   C.3       1 RES1  22.2270
  1862 27.83  104.5000  99.5000  81.5000   C.3       1 RES1  27.8300
  1863 27.83  104.5000  99.5000  82.0000   C.3       1 RES1  27.8300
  1864 27.83  104.5000  99.5000  82.5000   C.3       1 RES1  27.8300
  1865 27.83  105.0000  99.5000  81.5000   C.3       1 RES1  27.8300
  1866 27.83  105.0000  99.5000  82.0000   C.3       1 RES1  27.8300
  1867 27.83  105.0000  99.5000  82.5000   C.3       1 RES1  27.8300
  1868 27.83  105.5000  99.5000  81.5000   C.3       1 RES1  27.8300
  1869 27.83  105.5000  99.5000  82.0000   C.3       1 RES1  27.8300
  1870 27.83  105.5000  99.5000  82.5000   C.3       1 RES1  27.8300
  1871 21.43  101.0000  99.0000  77.0000   C.3       1 RES1  21.4290
  1872 21.43  101.0000  99.5000  77.0000   C.3       1 RES1  21.4290
  1873 21.43  101.5000  99.0000  77.0000   C.3       1 RES1  21.4290
  1874 21.43  101.5000  99.5000  77.0000   C.3       1 RES1  21.4290
  1875 21.43  102.0000  99.0000  77.0000   C.3       1 RES1  21.4290
  1876 21.43  102.0000  99.5000  77.0000   C.3       1 RES1  21.4290
  1877 27.66  104.5000 100.5000  80.5000   C.3       1 RES1  27.6610
  1878 25.83  102.5000 101.0000  78.5000   C.3       1 RES1  25.8320
  1879 25.83  103.0000 101.0000  78.5000   C.3       1 RES1  25.8320
  1880 25.83  103.5000 101.0000  78.5000   C.3       1 RES1  25.8320
  1881 30.30  102.5000 103.0000  80.0000   C.3       1 RES1  30.3010
  1882 30.30  102.5000 103.0000  80.5000   C.3       1 RES1  30.3010
  1883 30.30  102.5000 103.0000  81.0000   C.3       1 RES1  30.3010
  1884 20.25  101.0000 102.0000  79.5000   C.3       1 RES1  20.2540
  1885 21.49  100.0000 101.5000  76.5000   C.3       1 RES1  21.4910
  1886 21.49  100.0000 102.0000  76.5000   C.3       1 RES1  21.4910
  1887 19.92  101.0000  99.5000  80.0000   C.3       1 RES1  19.9170
  1888 19.92  101.0000  99.5000  80.5000   C.3       1 RES1  19.9170
  1889 19.92  101.0000  99.5000  81.0000   C.3       1 RES1  19.9170
  1890 20.07  104.5000  99.5000  80.0000   C.3       1 RES1  20.0710
  1891 21.15  102.5000 100.0000  82.5000   C.3       1 RES1  21.1510
  1892 24.25  103.0000  99.0000  82.0000   C.3       1 RES1  24.2490
  1893 24.25  103.5000  99.0000  82.0000   C.3       1 RES1  24.2490
  1894 24.25  104.0000  99.0000  82.0000   C.3       1 RES1  24.2490
  1895 19.67   98.5000  99.5000  80.0000   C.3       1 RES1  19.6710
  1896 19.67   98.5000  99.5000  80.5000   C.3       1 RES1  19.6710
  1897 19.67   98.5000  99.5000  81.0000   C.3       1 RES1  19.6710
  1898 19.67   98.5000 100.0000  80.0000   C.3       1 RES1  19.6710
  1899 19.67   98.5000 100.0000  80.5000   C.3       1 RES1  19.6710
  1900 19.67   98.5000 100.0000  81.0000   C.3       1 RES1  19.6710
  1901 19.67   98.5000 100.5000  80.0000   C.3       1 RES1  19.6710
  1902 19.67   98.5000 100.5000  80.5000   C.3       1 RES1  19.6710
  1903 19.67   98.5000 100.5000  81.0000   C.3       1 RES1  19.6710
  1904 19.67   99.0000  99.5000  80.0000   C.3       1 RES1  19.6710
  1905 19.67   99.0000  99.5000  80.5000   C.3       1 RES1  19.6710
  1906 19.67   99.0000  99.5000  81.0000   C.3       1 RES1  19.6710
  1907 19.67   99.0000 100.0000  80.0000   C.3       1 RES1  19.6710
  1908 19.67   99.0000 100.0000  80.5000   C.3       1 RES1  19.6710
  1909 19.67   99.0000 100.0000  81.0000   C.3       1 RES1  19.6710
  1910 19.67   99.0000 100.5000  80.0000   C.3       1 RES1  19.6710
  1911 19.67   99.0000 100.5000  80.5000   C.3       1 RES1  19.6710
  1912 19.67   99.0000 100.5000  81.0000   C.3       1 RES1  19.6710
  1913 24.91  101.5000 100.5000  80.5000   C.3       1 RES1  24.9120
  1914 24.91  101.5000 100.5000  81.0000   C.3       1 RES1  24.9120
  1915 24.91  101.5000 100.5000  81.5000   C.3       1 RES1  24.9120
  1916 24.91  101.5000 101.0000  80.5000   C.3       1 RES1  24.9120
  1917 24.91  101.5000 101.0000  81.0000   C.3       1 RES1  24.9120
  1918 24.91  101.5000 101.0000  81.5000   C.3       1 RES1  24.9120
  1919 24.91  101.5000 101.5000  80.5000   C.3       1 RES1  24.9120
  1920 24.91  101.5000 101.5000  81.0000   C.3       1 RES1  24.9120
  1921 24.91  101.5000 101.5000  81.5000   C.3       1 RES1  24.9120
  1922 19.65   99.5000  96.5000  82.5000   C.3       1 RES1  19.6490
  1923 24.82  106.0000 101.5000  82.5000   C.3       1 RES1  24.8180
  1924 28.10  102.0000 101.5000  79.0000   C.3       1 RES1  28.0980
  1925 28.10  102.0000 101.5000  79.5000   C.3       1 RES1  28.0980
  1926 28.10  102.0000 102.0000  79.5000   C.3       1 RES1  28.0980
  1927 28.10  102.0000 102.5000  79.5000   C.3       1 RES1  28.0980
  1928 22.29   96.5000  98.5000  81.5000   C.3       1 RES1  22.2910
  1929 22.29   96.5000  98.5000  82.0000   C.3       1 RES1  22.2910
  1930 22.29   96.5000  98.5000  82.5000   C.3       1 RES1  22.2910
  1931 22.29   96.5000  99.0000  81.5000   C.3       1 RES1  22.2910
  1932 22.29   96.5000  99.0000  82.0000   C.3       1 RES1  22.2910
  1933 22.29   96.5000  99.0000  82.5000   C.3       1 RES1  22.2910
  1934 22.29   96.5000  99.5000  81.5000   C.3       1 RES1  22.2910
  1935 22.29   96.5000  99.5000  82.0000   C.3       1 RES1  22.2910
  1936 22.29   96.5000  99.5000  82.5000   C.3       1 RES1  22.2910
  1937 22.29   97.0000  98.5000  81.5000   C.3       1 RES1  22.2910
  1938 22.29   97.0000  98.5000  82.0000   C.3       1 RES1  22.2910
  1939 22.29   97.0000  98.5000  82.5000   C.3       1 RES1  22.2910
  1940 22.29   97.0000  99.0000  81.5000   C.3       1 RES1  22.2910
  1941 22.29   97.0000  99.0000  82.0000   C.3       1 RES1  22.2910
  1942 22.29   97.0000  99.0000  82.5000   C.3       1 RES1  22.2910
  1943 22.29   97.0000  99.5000  81.5000   C.3       1 RES1  22.2910
  1944 22.29   97.0000  99.5000  82.0000   C.3       1 RES1  22.2910
  1945 22.29   97.0000  99.5000  82.5000   C.3       1 RES1  22.2910
  1946 22.29   97.5000  98.5000  81.5000   C.3       1 RES1  22.2910
  1947 22.29   97.5000  98.5000  82.0000   C.3       1 RES1  22.2910
  1948 22.29   97.5000  98.5000  82.5000   C.3       1 RES1  22.2910
  1949 22.29   97.5000  99.0000  81.5000   C.3       1 RES1  22.2910
  1950 22.29   97.5000  99.0000  82.0000   C.3       1 RES1  22.2910
  1951 22.29   97.5000  99.0000  82.5000   C.3       1 RES1  22.2910
  1952 22.29   97.5000  99.5000  81.5000   C.3       1 RES1  22.2910
  1953 22.29   97.5000  99.5000  82.0000   C.3       1 RES1  22.2910
  1954 22.29   97.5000  99.5000  82.5000   C.3       1 RES1  22.2910
  1955 24.09  102.0000 103.0000  81.5000   C.3       1 RES1  24.0880
  1956 19.61   95.5000  93.5000  80.5000   C.3       1 RES1  19.6120
  1957 19.61   95.5000  93.5000  81.0000   C.3       1 RES1  19.6120
  1958 19.61   95.5000  93.5000  81.5000   C.3       1 RES1  19.6120
  1959 19.61   95.5000  94.0000  80.5000   C.3       1 RES1  19.6120
  1960 19.61   95.5000  94.0000  81.0000   C.3       1 RES1  19.6120
  1961 19.61   95.5000  94.0000  81.5000   C.3       1 RES1  19.6120
  1962 19.61   95.5000  94.5000  80.5000   C.3       1 RES1  19.6120
  1963 19.61   95.5000  94.5000  81.0000   C.3       1 RES1  19.6120
  1964 19.61   95.5000  94.5000  81.5000   C.3       1 RES1  19.6120
  1965 19.61   96.0000  93.5000  80.5000   C.3       1 RES1  19.6120
  1966 19.61   96.0000  93.5000  81.0000   C.3       1 RES1  19.6120
  1967 19.61   96.0000  94.0000  80.5000   C.3       1 RES1  19.6120
  1968 19.61   96.0000  94.0000  81.0000   C.3       1 RES1  19.6120
  1969 19.61   96.0000  94.0000  81.5000   C.3       1 RES1  19.6120
  1970 19.61   96.5000  93.5000  80.5000   C.3       1 RES1  19.6120
  1971 19.61   96.5000  93.5000  81.0000   C.3       1 RES1  19.6120
  1972 19.61   96.5000  94.0000  80.5000   C.3       1 RES1  19.6120
  1973 19.61   96.5000  94.0000  81.0000   C.3       1 RES1  19.6120
  1974 19.61   96.5000  94.0000  81.5000   C.3       1 RES1  19.6120
  1975 26.35  104.5000 103.0000  81.0000   C.3       1 RES1  26.3510
  1976 25.70  104.0000 101.5000  83.0000   C.3       1 RES1  25.7000
  1977 20.42   96.0000  99.0000  80.0000   C.3       1 RES1  20.4220
  1978 20.42   96.0000  99.0000  80.5000   C.3       1 RES1  20.4220
  1979 20.42   96.0000  99.0000  81.0000   C.3       1 RES1  20.4220
  1980 20.42   96.0000  99.5000  80.0000   C.3       1 RES1  20.4220
  1981 20.42   96.0000  99.5000  80.5000   C.3       1 RES1  20.4220
  1982 20.42   96.0000  99.5000  81.0000   C.3       1 RES1  20.4220
  1983 20.42   96.0000 100.0000  80.0000   C.3       1 RES1  20.4220
  1984 20.42   96.0000 100.0000  80.5000   C.3       1 RES1  20.4220
  1985 20.42   96.0000 100.0000  81.0000   C.3       1 RES1  20.4220
  1986 20.42   96.5000  99.0000  80.0000   C.3       1 RES1  20.4220
  1987 20.42   96.5000  99.0000  80.5000   C.3       1 RES1  20.4220
  1988 20.42   96.5000  99.5000  80.5000   C.3       1 RES1  20.4220
  1989 20.42   96.5000 100.0000  80.5000   C.3       1 RES1  20.4220
  1990 20.42   96.5000 100.0000  81.0000   C.3       1 RES1  20.4220
  1991 20.42   97.0000  99.0000  80.0000   C.3       1 RES1  20.4220
  1992 20.42   97.0000  99.0000  80.5000   C.3       1 RES1  20.4220
  1993 20.42   97.0000  99.5000  80.5000   C.3       1 RES1  20.4220
  1994 20.42   97.0000 100.0000  80.5000   C.3       1 RES1  20.4220
  1995 20.42   97.0000 100.0000  81.0000   C.3       1 RES1  20.4220
  1996 26.33  103.5000  99.5000  81.0000   C.3       1 RES1  26.3340
  1997 26.33  103.5000  99.5000  81.5000   C.3       1 RES1  26.3340
  1998 26.33  103.5000  99.5000  82.0000   C.3       1 RES1  26.3340
  1999 22.48  101.0000 103.5000  76.5000   C.3       1 RES1  22.4780
  2000 22.48  101.0000 103.5000  77.0000   C.3       1 RES1  22.4780
  2001 22.48  101.0000 103.5000  77.5000   C.3       1 RES1  22.4780
  2002 22.48  101.5000 103.5000  76.5000   C.3       1 RES1  22.4780
  2003 22.48  102.0000 103.5000  76.5000   C.3       1 RES1  22.4780
  2004 21.14  101.5000  99.5000  79.5000   C.3       1 RES1  21.1400
  2005 21.14  101.5000 100.0000  79.5000   C.3       1 RES1  21.1400
  2006 21.14  102.0000  99.5000  79.5000   C.3       1 RES1  21.1400
  2007 21.14  102.0000 100.0000  79.5000   C.3       1 RES1  21.1400
  2008 21.14  102.5000  99.0000  79.5000   C.3       1 RES1  21.1400
  2009 20.33  101.0000 103.5000  78.5000   C.3       1 RES1  20.3330
  2010 30.16  104.0000 101.5000  82.0000   C.3       1 RES1  30.1570
  2011 30.16  104.0000 102.0000  82.0000   C.3       1 RES1  30.1570
  2012 25.13  102.5000 103.5000  81.5000   C.3       1 RES1  25.1300
  2013 19.65  100.0000  98.5000  80.0000   C.3       1 RES1  19.6540
  2014 19.65  100.0000  98.5000  80.5000   C.3       1 RES1  19.6540
  2015 19.65  100.0000  99.0000  80.0000   C.3       1 RES1  19.6540
  2016 19.65  100.0000  99.0000  80.5000   C.3       1 RES1  19.6540
  2017 19.65  100.5000  99.0000  80.5000   C.3       1 RES1  19.6540
  2018 19.65  101.0000  99.0000  80.5000   C.3       1 RES1  19.6540
  2019 19.99  101.5000  99.5000  76.5000   C.3       1 RES1  19.9910
  2020 19.99  102.0000  99.5000  76.5000   C.3       1 RES1  19.9910
  2021 19.99  102.5000  99.5000  76.5000   C.3       1 RES1  19.9910
  2022 19.47  103.5000 100.0000  76.0000   C.3       1 RES1  19.4690
  2023 19.47  107.0000 102.5000  81.0000   C.3       1 RES1  19.4690
  2024 20.74  104.0000  99.5000  83.0000   C.3       1 RES1  20.7370
@<TRIPOS>SUBSTRUCTURE
     1 RES1        1 GROUP             0 ****  ****    0  
