@<TRIPOS>MOLECULE
fitting_pts
  1584     0     1     0     0
SMALL
USER_CHARGES
****
Generated from the CSD - Crystal connectivity not present

@<TRIPOS>ATOM
     1 21.14  101.5000  99.5000  79.5000   C.3       1 RES1  21.1400
     2 21.14  101.5000 100.0000  79.5000   C.3       1 RES1  21.1400
     3 21.14  102.0000  99.5000  79.5000   C.3       1 RES1  21.1400
     4 21.14  102.0000 100.0000  79.5000   C.3       1 RES1  21.1400
     5 21.14  102.5000  99.0000  79.5000   C.3       1 RES1  21.1400
     6 21.26  101.5000 100.5000  79.5000   C.3       1 RES1  21.2650
     7 23.84  102.5000 100.0000  80.0000   C.3       1 RES1  23.8360
     8 23.84  103.0000 100.0000  80.0000   C.3       1 RES1  23.8360
     9 23.84  103.5000 100.0000  80.0000   C.3       1 RES1  23.8360
    10 24.10  102.0000 102.5000  82.0000   C.3       1 RES1  24.1030
    11 20.25  100.5000  97.5000  80.5000   C.3       1 RES1  20.2500
    12 20.25  100.5000  97.5000  81.0000   C.3       1 RES1  20.2500
    13 20.25  100.5000  98.0000  80.5000   C.3       1 RES1  20.2500
    14 20.25  100.5000  98.0000  81.0000   C.3       1 RES1  20.2500
    15 20.25  100.5000  98.5000  80.5000   C.3       1 RES1  20.2500
    16 20.25  100.5000  98.5000  81.0000   C.3       1 RES1  20.2500
    17 20.25  101.0000  98.5000  80.5000   C.3       1 RES1  20.2500
    18 20.25  101.0000  98.5000  81.0000   C.3       1 RES1  20.2500
    19 26.30  102.0000 101.0000  79.0000   C.3       1 RES1  26.2980
    20 21.99   97.5000 100.0000  78.0000   C.3       1 RES1  21.9870
    21 21.99   97.5000 100.0000  78.5000   C.3       1 RES1  21.9870
    22 21.99   97.5000 100.0000  79.0000   C.3       1 RES1  21.9870
    23 21.99   97.5000 100.5000  78.0000   C.3       1 RES1  21.9870
    24 21.99   97.5000 100.5000  78.5000   C.3       1 RES1  21.9870
    25 21.99   97.5000 100.5000  79.0000   C.3       1 RES1  21.9870
    26 21.99   97.5000 101.0000  78.0000   C.3       1 RES1  21.9870
    27 21.99   97.5000 101.0000  78.5000   C.3       1 RES1  21.9870
    28 21.99   97.5000 101.0000  79.0000   C.3       1 RES1  21.9870
    29 23.22  106.5000 100.5000  80.5000   C.3       1 RES1  23.2190
    30 23.22  106.5000 100.5000  81.0000   C.3       1 RES1  23.2190
    31 23.22  106.5000 100.5000  81.5000   C.3       1 RES1  23.2190
    32 20.95   98.0000 101.5000  79.0000   C.3       1 RES1  20.9480
    33 20.95   98.5000 101.5000  79.0000   C.3       1 RES1  20.9480
    34 20.95   99.0000 101.5000  79.0000   C.3       1 RES1  20.9480
    35 28.46  103.5000 100.5000  82.5000   C.3       1 RES1  28.4600
    36 28.46  103.5000 101.0000  82.5000   C.3       1 RES1  28.4600
    37 28.46  103.5000 101.5000  82.5000   C.3       1 RES1  28.4600
    38 23.62  101.5000 102.0000  80.0000   C.3       1 RES1  23.6200
    39 22.00   99.5000 100.0000  79.0000   C.3       1 RES1  22.0000
    40 22.00   99.5000 100.5000  79.0000   C.3       1 RES1  22.0000
    41 22.00   99.5000 101.0000  79.0000   C.3       1 RES1  22.0000
    42 29.37  102.5000 101.0000  80.0000   C.3       1 RES1  29.3690
    43 29.37  103.0000 101.0000  80.0000   C.3       1 RES1  29.3690
    44 29.37  103.5000 101.0000  80.0000   C.3       1 RES1  29.3690
    45 23.95  106.5000 101.0000  79.5000   C.3       1 RES1  23.9460
    46 25.79  102.0000 100.5000  82.0000   C.3       1 RES1  25.7870
    47 20.52  100.0000 103.0000  77.5000   C.3       1 RES1  20.5250
    48 24.91  101.5000 100.5000  80.5000   C.3       1 RES1  24.9120
    49 24.91  101.5000 100.5000  81.0000   C.3       1 RES1  24.9120
    50 24.91  101.5000 100.5000  81.5000   C.3       1 RES1  24.9120
    51 24.91  101.5000 101.0000  80.5000   C.3       1 RES1  24.9120
    52 24.91  101.5000 101.0000  81.0000   C.3       1 RES1  24.9120
    53 24.91  101.5000 101.0000  81.5000   C.3       1 RES1  24.9120
    54 24.91  101.5000 101.5000  80.5000   C.3       1 RES1  24.9120
    55 24.91  101.5000 101.5000  81.0000   C.3       1 RES1  24.9120
    56 24.91  101.5000 101.5000  81.5000   C.3       1 RES1  24.9120
    57 22.62  102.0000  99.0000  82.0000   C.3       1 RES1  22.6180
    58 20.96  101.5000 103.0000  79.5000   C.3       1 RES1  20.9590
    59 22.87   99.5000 100.5000  77.5000   C.3       1 RES1  22.8670
    60 22.87   99.5000 100.5000  78.0000   C.3       1 RES1  22.8670
    61 22.87   99.5000 100.5000  78.5000   C.3       1 RES1  22.8670
    62 22.87   99.5000 101.0000  77.5000   C.3       1 RES1  22.8670
    63 22.87   99.5000 101.0000  78.0000   C.3       1 RES1  22.8670
    64 22.87   99.5000 101.0000  78.5000   C.3       1 RES1  22.8670
    65 22.87   99.5000 101.5000  77.5000   C.3       1 RES1  22.8670
    66 22.87   99.5000 101.5000  78.0000   C.3       1 RES1  22.8670
    67 22.87   99.5000 101.5000  78.5000   C.3       1 RES1  22.8670
    68 22.87  100.0000 100.5000  78.0000   C.3       1 RES1  22.8670
    69 22.87  100.0000 100.5000  78.5000   C.3       1 RES1  22.8670
    70 22.87  100.0000 101.0000  78.0000   C.3       1 RES1  22.8670
    71 22.87  100.0000 101.0000  78.5000   C.3       1 RES1  22.8670
    72 22.87  100.0000 101.5000  77.5000   C.3       1 RES1  22.8670
    73 22.87  100.0000 101.5000  78.0000   C.3       1 RES1  22.8670
    74 22.87  100.0000 101.5000  78.5000   C.3       1 RES1  22.8670
    75 22.87  100.5000 100.5000  78.5000   C.3       1 RES1  22.8670
    76 22.87  100.5000 101.0000  78.5000   C.3       1 RES1  22.8670
    77 22.87  100.5000 101.5000  78.5000   C.3       1 RES1  22.8670
    78 21.45  101.5000 102.5000  80.0000   C.3       1 RES1  21.4480
    79 20.72  101.0000 102.0000  79.0000   C.3       1 RES1  20.7150
    80 25.95  102.0000 103.0000  80.0000   C.3       1 RES1  25.9540
    81 24.63  106.5000 101.0000  81.5000   C.3       1 RES1  24.6300
    82 24.63  106.5000 101.5000  81.5000   C.3       1 RES1  24.6300
    83 24.63  106.5000 102.0000  81.5000   C.3       1 RES1  24.6300
    84 26.00  104.0000 100.5000  80.0000   C.3       1 RES1  26.0010
    85 22.08   98.0000 100.0000  79.0000   C.3       1 RES1  22.0810
    86 22.08   98.0000 100.5000  79.0000   C.3       1 RES1  22.0810
    87 22.08   98.0000 101.0000  79.0000   C.3       1 RES1  22.0810
    88 22.08   98.5000 100.0000  79.0000   C.3       1 RES1  22.0810
    89 22.08   98.5000 100.5000  79.0000   C.3       1 RES1  22.0810
    90 22.08   98.5000 101.0000  79.0000   C.3       1 RES1  22.0810
    91 22.08   99.0000 100.0000  79.0000   C.3       1 RES1  22.0810
    92 22.08   99.0000 100.5000  79.0000   C.3       1 RES1  22.0810
    93 22.08   99.0000 101.0000  79.0000   C.3       1 RES1  22.0810
    94 22.93  102.5000 100.5000  79.0000   C.3       1 RES1  22.9290
    95 22.93  103.0000 100.5000  79.0000   C.3       1 RES1  22.9290
    96 22.93  103.5000 100.5000  79.0000   C.3       1 RES1  22.9290
    97 22.62  101.5000 100.0000  80.0000   C.3       1 RES1  22.6210
    98 22.62  101.5000 100.0000  80.5000   C.3       1 RES1  22.6210
    99 22.62  101.5000 100.0000  81.0000   C.3       1 RES1  22.6210
   100 22.62  102.0000 100.0000  80.0000   C.3       1 RES1  22.6210
   101 20.17   97.0000 100.0000  81.5000   C.3       1 RES1  20.1680
   102 20.17   97.0000 100.0000  82.0000   C.3       1 RES1  20.1680
   103 20.17   97.0000 100.0000  82.5000   C.3       1 RES1  20.1680
   104 20.17   97.5000 100.0000  81.5000   C.3       1 RES1  20.1680
   105 20.17   97.5000 100.0000  82.0000   C.3       1 RES1  20.1680
   106 20.17   97.5000 100.0000  82.5000   C.3       1 RES1  20.1680
   107 20.17   98.0000 100.0000  81.5000   C.3       1 RES1  20.1680
   108 20.17   98.0000 100.0000  82.0000   C.3       1 RES1  20.1680
   109 20.17   98.0000 100.0000  82.5000   C.3       1 RES1  20.1680
   110 20.15  103.5000 102.0000  83.0000   C.3       1 RES1  20.1460
   111 20.15  104.0000 102.0000  83.0000   C.3       1 RES1  20.1460
   112 20.15  104.5000 102.0000  83.0000   C.3       1 RES1  20.1460
   113 20.51   99.0000 100.0000  79.5000   C.3       1 RES1  20.5120
   114 20.51   99.0000 100.5000  79.5000   C.3       1 RES1  20.5120
   115 20.51   99.0000 101.0000  79.5000   C.3       1 RES1  20.5120
   116 20.93  100.5000 103.0000  78.0000   C.3       1 RES1  20.9270
   117 21.46  101.0000 102.0000  80.5000   C.3       1 RES1  21.4600
   118 21.46  101.0000 102.0000  81.0000   C.3       1 RES1  21.4600
   119 21.46  101.0000 102.0000  81.5000   C.3       1 RES1  21.4600
   120 21.59  102.5000 100.5000  77.5000   C.3       1 RES1  21.5860
   121 21.59  102.5000 101.0000  77.5000   C.3       1 RES1  21.5860
   122 21.59  103.0000 100.0000  77.5000   C.3       1 RES1  21.5860
   123 21.59  103.0000 100.5000  77.5000   C.3       1 RES1  21.5860
   124 21.59  103.0000 101.0000  77.5000   C.3       1 RES1  21.5860
   125 20.51   96.0000  98.0000  81.5000   C.3       1 RES1  20.5070
   126 20.51   96.0000  98.0000  82.0000   C.3       1 RES1  20.5070
   127 20.51   96.0000  98.0000  82.5000   C.3       1 RES1  20.5070
   128 20.51   96.0000  98.5000  81.5000   C.3       1 RES1  20.5070
   129 20.51   96.0000  98.5000  82.0000   C.3       1 RES1  20.5070
   130 20.51   96.0000  98.5000  82.5000   C.3       1 RES1  20.5070
   131 20.51   96.0000  99.0000  81.5000   C.3       1 RES1  20.5070
   132 20.51   96.0000  99.0000  82.0000   C.3       1 RES1  20.5070
   133 20.51   96.0000  99.0000  82.5000   C.3       1 RES1  20.5070
   134 20.68   96.0000  92.0000  81.5000   C.3       1 RES1  20.6760
   135 20.68   96.5000  92.0000  81.5000   C.3       1 RES1  20.6760
   136 22.84  102.5000 101.0000  78.0000   C.3       1 RES1  22.8380
   137 23.20  101.5000 101.5000  79.5000   C.3       1 RES1  23.2020
   138 23.20  101.5000 102.0000  79.5000   C.3       1 RES1  23.2020
   139 23.20  101.5000 102.5000  79.5000   C.3       1 RES1  23.2020
   140 24.66  105.5000 100.5000  80.5000   C.3       1 RES1  24.6580
   141 24.66  106.0000 100.5000  80.5000   C.3       1 RES1  24.6580
   142 25.45  102.0000 101.0000  78.5000   C.3       1 RES1  25.4550
   143 22.23   97.0000  98.0000  82.0000   C.3       1 RES1  22.2270
   144 22.23   97.0000  98.0000  82.5000   C.3       1 RES1  22.2270
   145 22.23   97.0000  98.0000  83.0000   C.3       1 RES1  22.2270
   146 22.23   97.0000  98.5000  83.0000   C.3       1 RES1  22.2270
   147 22.23   97.0000  99.0000  83.0000   C.3       1 RES1  22.2270
   148 22.23   97.5000  98.0000  82.0000   C.3       1 RES1  22.2270
   149 22.23   97.5000  98.0000  82.5000   C.3       1 RES1  22.2270
   150 22.23   97.5000  98.0000  83.0000   C.3       1 RES1  22.2270
   151 22.23   97.5000  98.5000  83.0000   C.3       1 RES1  22.2270
   152 22.23   97.5000  99.0000  83.0000   C.3       1 RES1  22.2270
   153 22.23   98.0000  98.0000  82.0000   C.3       1 RES1  22.2270
   154 22.23   98.0000  98.0000  82.5000   C.3       1 RES1  22.2270
   155 22.23   98.0000  98.0000  83.0000   C.3       1 RES1  22.2270
   156 22.23   98.0000  98.5000  82.0000   C.3       1 RES1  22.2270
   157 22.23   98.0000  98.5000  82.5000   C.3       1 RES1  22.2270
   158 22.23   98.0000  98.5000  83.0000   C.3       1 RES1  22.2270
   159 22.23   98.0000  99.0000  82.0000   C.3       1 RES1  22.2270
   160 22.23   98.0000  99.0000  82.5000   C.3       1 RES1  22.2270
   161 22.23   98.0000  99.0000  83.0000   C.3       1 RES1  22.2270
   162 25.34  104.0000  99.0000  80.5000   C.3       1 RES1  25.3360
   163 25.34  104.0000  99.0000  81.0000   C.3       1 RES1  25.3360
   164 25.34  104.0000  99.0000  81.5000   C.3       1 RES1  25.3360
   165 28.10  102.0000 101.5000  79.0000   C.3       1 RES1  28.0980
   166 28.10  102.0000 101.5000  79.5000   C.3       1 RES1  28.0980
   167 28.10  102.0000 102.0000  79.5000   C.3       1 RES1  28.0980
   168 28.10  102.0000 102.5000  79.5000   C.3       1 RES1  28.0980
   169 23.64  101.5000 101.5000  79.0000   C.3       1 RES1  23.6420
   170 23.64  101.5000 102.0000  79.0000   C.3       1 RES1  23.6420
   171 23.64  101.5000 102.5000  79.0000   C.3       1 RES1  23.6420
   172 21.83  102.5000  99.5000  79.5000   C.3       1 RES1  21.8250
   173 21.83  102.5000 100.0000  79.5000   C.3       1 RES1  21.8250
   174 21.83  103.0000  99.5000  79.5000   C.3       1 RES1  21.8250
   175 21.83  103.0000 100.0000  79.5000   C.3       1 RES1  21.8250
   176 21.83  103.5000  99.5000  79.5000   C.3       1 RES1  21.8250
   177 21.83  103.5000 100.0000  79.5000   C.3       1 RES1  21.8250
   178 22.92  105.0000 102.0000  82.5000   C.3       1 RES1  22.9160
   179 25.01  105.0000 102.0000  81.0000   C.3       1 RES1  25.0110
   180 22.25  101.0000 100.5000  80.0000   C.3       1 RES1  22.2470
   181 22.25  101.0000 101.0000  80.0000   C.3       1 RES1  22.2470
   182 22.25  101.0000 101.5000  80.0000   C.3       1 RES1  22.2470
   183 23.13  102.0000  99.5000  82.0000   C.3       1 RES1  23.1330
   184 26.25  102.0000 100.5000  80.5000   C.3       1 RES1  26.2450
   185 26.25  102.0000 100.5000  81.0000   C.3       1 RES1  26.2450
   186 26.25  102.0000 100.5000  81.5000   C.3       1 RES1  26.2450
   187 20.41   98.5000  99.5000  82.0000   C.3       1 RES1  20.4070
   188 20.41   98.5000  99.5000  82.5000   C.3       1 RES1  20.4070
   189 20.41   98.5000  99.5000  83.0000   C.3       1 RES1  20.4070
   190 25.83  102.5000 101.0000  78.5000   C.3       1 RES1  25.8320
   191 25.83  103.0000 101.0000  78.5000   C.3       1 RES1  25.8320
   192 25.83  103.5000 101.0000  78.5000   C.3       1 RES1  25.8320
   193 21.12  102.5000  99.0000  77.0000   C.3       1 RES1  21.1170
   194 21.12  102.5000  99.5000  77.0000   C.3       1 RES1  21.1170
   195 20.33  101.0000 103.5000  78.5000   C.3       1 RES1  20.3330
   196 20.72  101.5000  97.0000  80.0000   C.3       1 RES1  20.7240
   197 20.72  101.5000  97.0000  80.5000   C.3       1 RES1  20.7240
   198 20.72  101.5000  97.0000  81.0000   C.3       1 RES1  20.7240
   199 20.72  101.5000  97.5000  80.5000   C.3       1 RES1  20.7240
   200 20.72  101.5000  97.5000  81.0000   C.3       1 RES1  20.7240
   201 20.72  101.5000  98.0000  80.5000   C.3       1 RES1  20.7240
   202 20.72  101.5000  98.0000  81.0000   C.3       1 RES1  20.7240
   203 20.72  102.0000  97.0000  80.0000   C.3       1 RES1  20.7240
   204 20.72  102.0000  97.0000  80.5000   C.3       1 RES1  20.7240
   205 20.72  102.0000  97.0000  81.0000   C.3       1 RES1  20.7240
   206 30.33  102.5000 101.0000  82.0000   C.3       1 RES1  30.3250
   207 30.33  102.5000 101.5000  82.0000   C.3       1 RES1  30.3250
   208 30.33  102.5000 102.0000  82.0000   C.3       1 RES1  30.3250
   209 30.33  103.0000 101.0000  82.0000   C.3       1 RES1  30.3250
   210 30.33  103.0000 101.5000  82.0000   C.3       1 RES1  30.3250
   211 30.33  103.0000 102.0000  82.0000   C.3       1 RES1  30.3250
   212 30.33  103.5000 101.0000  82.0000   C.3       1 RES1  30.3250
   213 30.33  103.5000 101.5000  82.0000   C.3       1 RES1  30.3250
   214 30.33  103.5000 102.0000  82.0000   C.3       1 RES1  30.3250
   215 26.16  103.0000 100.0000  80.5000   C.3       1 RES1  26.1640
   216 26.16  103.5000 100.0000  80.5000   C.3       1 RES1  26.1640
   217 26.16  104.0000 100.0000  80.5000   C.3       1 RES1  26.1640
   218 20.82  100.5000 101.5000  80.0000   C.3       1 RES1  20.8230
   219 20.19  102.5000 104.0000  76.5000   C.3       1 RES1  20.1890
   220 20.16  100.5000 103.5000  78.0000   C.3       1 RES1  20.1590
   221 22.07  102.5000 100.5000  78.0000   C.3       1 RES1  22.0650
   222 20.33   96.0000  92.5000  84.0000   C.3       1 RES1  20.3310
   223 20.33   96.0000  93.0000  84.0000   C.3       1 RES1  20.3310
   224 20.33   96.0000  93.5000  84.0000   C.3       1 RES1  20.3310
   225 20.33   96.5000  92.5000  84.0000   C.3       1 RES1  20.3310
   226 20.33   96.5000  93.0000  84.0000   C.3       1 RES1  20.3310
   227 20.33   96.5000  93.5000  84.0000   C.3       1 RES1  20.3310
   228 20.33   97.0000  92.5000  84.0000   C.3       1 RES1  20.3310
   229 20.33   97.0000  93.0000  84.0000   C.3       1 RES1  20.3310
   230 20.33   97.0000  93.5000  84.0000   C.3       1 RES1  20.3310
   231 21.90  105.0000 100.5000  80.0000   C.3       1 RES1  21.8960
   232 23.65  106.5000 102.5000  81.0000   C.3       1 RES1  23.6450
   233 26.31  106.0000 101.5000  81.5000   C.3       1 RES1  26.3070
   234 26.31  106.0000 101.5000  82.0000   C.3       1 RES1  26.3070
   235 22.75   99.5000 100.5000  77.0000   C.3       1 RES1  22.7540
   236 22.75   99.5000 101.0000  77.0000   C.3       1 RES1  22.7540
   237 22.75   99.5000 101.5000  77.0000   C.3       1 RES1  22.7540
   238 22.75  100.0000 101.5000  77.0000   C.3       1 RES1  22.7540
   239 20.45  104.5000 104.0000  79.5000   C.3       1 RES1  20.4510
   240 20.45  104.5000 104.0000  80.0000   C.3       1 RES1  20.4510
   241 20.45  104.5000 104.0000  80.5000   C.3       1 RES1  20.4510
   242 21.87  101.5000  98.5000  80.5000   C.3       1 RES1  21.8730
   243 21.87  101.5000  98.5000  81.0000   C.3       1 RES1  21.8730
   244 21.87  101.5000  98.5000  81.5000   C.3       1 RES1  21.8730
   245 21.87  101.5000  99.0000  80.5000   C.3       1 RES1  21.8730
   246 21.87  101.5000  99.0000  81.0000   C.3       1 RES1  21.8730
   247 21.87  101.5000  99.0000  81.5000   C.3       1 RES1  21.8730
   248 21.87  101.5000  99.5000  80.5000   C.3       1 RES1  21.8730
   249 21.87  101.5000  99.5000  81.0000   C.3       1 RES1  21.8730
   250 21.87  101.5000  99.5000  81.5000   C.3       1 RES1  21.8730
   251 27.71  102.0000 101.5000  78.5000   C.3       1 RES1  27.7060
   252 20.69   98.0000  97.5000  81.5000   C.3       1 RES1  20.6940
   253 20.69   98.0000  97.5000  82.0000   C.3       1 RES1  20.6940
   254 20.69   98.0000  97.5000  82.5000   C.3       1 RES1  20.6940
   255 20.69   98.5000  98.5000  81.5000   C.3       1 RES1  20.6940
   256 20.69   98.5000  98.5000  82.0000   C.3       1 RES1  20.6940
   257 20.69   98.5000  98.5000  82.5000   C.3       1 RES1  20.6940
   258 20.69   99.0000  98.5000  81.5000   C.3       1 RES1  20.6940
   259 20.69   99.0000  98.5000  82.0000   C.3       1 RES1  20.6940
   260 20.69   99.0000  98.5000  82.5000   C.3       1 RES1  20.6940
   261 20.22  102.0000  98.0000  81.5000   C.3       1 RES1  20.2160
   262 27.12  104.0000  99.5000  81.0000   C.3       1 RES1  27.1180
   263 27.12  104.5000  99.5000  81.0000   C.3       1 RES1  27.1180
   264 27.12  105.0000  99.5000  81.0000   C.3       1 RES1  27.1180
   265 30.93  103.0000 103.0000  80.0000   C.3       1 RES1  30.9350
   266 30.93  103.0000 103.0000  80.5000   C.3       1 RES1  30.9350
   267 30.93  103.0000 103.0000  81.0000   C.3       1 RES1  30.9350
   268 30.93  103.5000 103.0000  80.0000   C.3       1 RES1  30.9350
   269 30.93  103.5000 103.0000  80.5000   C.3       1 RES1  30.9350
   270 30.93  103.5000 103.0000  81.0000   C.3       1 RES1  30.9350
   271 30.93  104.0000 103.0000  80.0000   C.3       1 RES1  30.9350
   272 30.93  104.0000 103.0000  80.5000   C.3       1 RES1  30.9350
   273 30.93  104.0000 103.0000  81.0000   C.3       1 RES1  30.9350
   274 21.55  101.5000 101.5000  76.0000   C.3       1 RES1  21.5530
   275 21.55  101.5000 102.0000  76.0000   C.3       1 RES1  21.5530
   276 21.55  102.0000 102.0000  76.0000   C.3       1 RES1  21.5530
   277 21.55  102.5000 102.0000  76.0000   C.3       1 RES1  21.5530
   278 20.86   96.5000  99.5000  83.0000   C.3       1 RES1  20.8630
   279 21.78  104.5000 100.5000  79.5000   C.3       1 RES1  21.7850
   280 26.38  102.5000 100.5000  80.0000   C.3       1 RES1  26.3750
   281 26.38  103.0000 100.5000  80.0000   C.3       1 RES1  26.3750
   282 26.38  103.5000 100.5000  80.0000   C.3       1 RES1  26.3750
   283 28.12  102.5000 100.5000  82.0000   C.3       1 RES1  28.1250
   284 29.20  103.5000 100.5000  82.0000   C.3       1 RES1  29.2050
   285 29.20  104.5000 100.5000  81.0000   C.3       1 RES1  29.2050
   286 29.20  104.5000 101.0000  81.0000   C.3       1 RES1  29.2050
   287 29.20  104.5000 101.5000  81.0000   C.3       1 RES1  29.2050
   288 29.20  104.5000 101.5000  81.5000   C.3       1 RES1  29.2050
   289 29.20  104.5000 101.5000  82.0000   C.3       1 RES1  29.2050
   290 21.62  100.5000 100.5000  79.0000   C.3       1 RES1  21.6160
   291 21.62  100.5000 101.0000  79.0000   C.3       1 RES1  21.6160
   292 21.62  100.5000 101.5000  79.0000   C.3       1 RES1  21.6160
   293 21.62  101.0000 101.5000  79.0000   C.3       1 RES1  21.6160
   294 28.78  104.0000 101.0000  80.0000   C.3       1 RES1  28.7800
   295 29.12  102.5000 103.0000  81.5000   C.3       1 RES1  29.1160
   296 20.58  102.5000  98.5000  82.0000   C.3       1 RES1  20.5770
   297 32.37  103.0000 101.5000  80.5000   C.3       1 RES1  32.3700
   298 32.37  103.0000 101.5000  81.0000   C.3       1 RES1  32.3700
   299 32.37  103.0000 101.5000  81.5000   C.3       1 RES1  32.3700
   300 32.37  103.0000 102.0000  80.5000   C.3       1 RES1  32.3700
   301 32.37  103.0000 102.0000  81.0000   C.3       1 RES1  32.3700
   302 32.37  103.0000 102.0000  81.5000   C.3       1 RES1  32.3700
   303 32.37  103.0000 102.5000  80.5000   C.3       1 RES1  32.3700
   304 32.37  103.0000 102.5000  81.0000   C.3       1 RES1  32.3700
   305 32.37  103.0000 102.5000  81.5000   C.3       1 RES1  32.3700
   306 32.37  103.5000 101.5000  80.5000   C.3       1 RES1  32.3700
   307 32.37  103.5000 101.5000  81.0000   C.3       1 RES1  32.3700
   308 32.37  103.5000 101.5000  81.5000   C.3       1 RES1  32.3700
   309 32.37  103.5000 102.0000  80.5000   C.3       1 RES1  32.3700
   310 32.37  103.5000 102.0000  81.0000   C.3       1 RES1  32.3700
   311 32.37  103.5000 102.0000  81.5000   C.3       1 RES1  32.3700
   312 32.37  103.5000 102.5000  80.5000   C.3       1 RES1  32.3700
   313 32.37  103.5000 102.5000  81.0000   C.3       1 RES1  32.3700
   314 32.37  103.5000 102.5000  81.5000   C.3       1 RES1  32.3700
   315 32.37  104.0000 101.5000  80.5000   C.3       1 RES1  32.3700
   316 32.37  104.0000 101.5000  81.0000   C.3       1 RES1  32.3700
   317 32.37  104.0000 101.5000  81.5000   C.3       1 RES1  32.3700
   318 32.37  104.0000 102.0000  80.5000   C.3       1 RES1  32.3700
   319 32.37  104.0000 102.0000  81.0000   C.3       1 RES1  32.3700
   320 32.37  104.0000 102.0000  81.5000   C.3       1 RES1  32.3700
   321 32.37  104.0000 102.5000  80.5000   C.3       1 RES1  32.3700
   322 32.37  104.0000 102.5000  81.0000   C.3       1 RES1  32.3700
   323 32.37  104.0000 102.5000  81.5000   C.3       1 RES1  32.3700
   324 24.06  101.5000 102.0000  80.5000   C.3       1 RES1  24.0560
   325 24.06  101.5000 102.0000  81.0000   C.3       1 RES1  24.0560
   326 24.06  101.5000 102.0000  81.5000   C.3       1 RES1  24.0560
   327 40.52   96.0000  93.5000  82.0000   C.3       1 RES1  40.5180
   328 40.52   96.0000  93.5000  82.5000   C.3       1 RES1  40.5180
   329 40.52   96.0000  93.5000  83.0000   C.3       1 RES1  40.5180
   330 40.52   96.5000  93.5000  82.0000   C.3       1 RES1  40.5180
   331 40.52   96.5000  93.5000  82.5000   C.3       1 RES1  40.5180
   332 40.52   96.5000  93.5000  83.0000   C.3       1 RES1  40.5180
   333 40.52   97.0000  92.5000  82.0000   C.3       1 RES1  40.5180
   334 40.52   97.0000  92.5000  82.5000   C.3       1 RES1  40.5180
   335 40.52   97.0000  92.5000  83.0000   C.3       1 RES1  40.5180
   336 40.52   97.0000  93.0000  82.0000   C.3       1 RES1  40.5180
   337 40.52   97.0000  93.0000  82.5000   C.3       1 RES1  40.5180
   338 40.52   97.0000  93.0000  83.0000   C.3       1 RES1  40.5180
   339 40.52   97.0000  93.5000  82.0000   C.3       1 RES1  40.5180
   340 40.52   97.0000  93.5000  82.5000   C.3       1 RES1  40.5180
   341 40.52   97.0000  93.5000  83.0000   C.3       1 RES1  40.5180
   342 31.95  103.0000 101.0000  80.5000   C.3       1 RES1  31.9470
   343 31.95  103.0000 101.0000  81.0000   C.3       1 RES1  31.9470
   344 31.95  103.0000 101.0000  81.5000   C.3       1 RES1  31.9470
   345 31.95  103.5000 101.0000  80.5000   C.3       1 RES1  31.9470
   346 31.95  103.5000 101.0000  81.0000   C.3       1 RES1  31.9470
   347 31.95  103.5000 101.0000  81.5000   C.3       1 RES1  31.9470
   348 31.95  104.0000 101.0000  80.5000   C.3       1 RES1  31.9470
   349 31.95  104.0000 101.0000  81.0000   C.3       1 RES1  31.9470
   350 31.95  104.0000 101.0000  81.5000   C.3       1 RES1  31.9470
   351 20.49   97.5000 100.0000  77.5000   C.3       1 RES1  20.4940
   352 20.49   97.5000 100.5000  77.5000   C.3       1 RES1  20.4940
   353 20.49   97.5000 101.0000  77.5000   C.3       1 RES1  20.4940
   354 20.49  101.0000  97.0000  79.5000   C.3       1 RES1  20.4940
   355 20.49  101.0000  97.0000  80.0000   C.3       1 RES1  20.4940
   356 20.49  101.0000  97.0000  80.5000   C.3       1 RES1  20.4940
   357 20.49  101.0000  97.5000  80.5000   C.3       1 RES1  20.4940
   358 20.49  101.0000  98.0000  80.5000   C.3       1 RES1  20.4940
   359 20.49  101.5000  97.0000  79.5000   C.3       1 RES1  20.4940
   360 20.49  102.0000  97.0000  79.5000   C.3       1 RES1  20.4940
   361 28.77  103.0000 100.5000  82.0000   C.3       1 RES1  28.7740
   362 25.10  104.5000 102.0000  82.5000   C.3       1 RES1  25.1050
   363 21.36  100.0000  99.0000  82.0000   C.3       1 RES1  21.3640
   364 21.36  100.0000  99.0000  82.5000   C.3       1 RES1  21.3640
   365 21.36  100.0000  99.0000  83.0000   C.3       1 RES1  21.3640
   366 21.36  100.0000  99.5000  82.0000   C.3       1 RES1  21.3640
   367 21.36  100.0000  99.5000  82.5000   C.3       1 RES1  21.3640
   368 21.36  100.0000  99.5000  83.0000   C.3       1 RES1  21.3640
   369 21.36  100.0000 100.0000  82.0000   C.3       1 RES1  21.3640
   370 21.36  100.0000 100.0000  82.5000   C.3       1 RES1  21.3640
   371 21.36  100.0000 100.0000  83.0000   C.3       1 RES1  21.3640
   372 20.36  100.5000 104.0000  76.5000   C.3       1 RES1  20.3620
   373 20.36  100.5000 104.0000  77.0000   C.3       1 RES1  20.3620
   374 20.36  100.5000 104.0000  77.5000   C.3       1 RES1  20.3620
   375 23.54  101.0000  98.5000  77.5000   C.3       1 RES1  23.5360
   376 23.54  101.0000  99.0000  77.5000   C.3       1 RES1  23.5360
   377 23.54  101.0000  99.5000  77.5000   C.3       1 RES1  23.5360
   378 23.54  101.5000  98.5000  77.5000   C.3       1 RES1  23.5360
   379 23.54  101.5000  99.0000  77.5000   C.3       1 RES1  23.5360
   380 23.54  101.5000  99.5000  77.5000   C.3       1 RES1  23.5360
   381 23.54  102.0000  98.5000  77.5000   C.3       1 RES1  23.5360
   382 23.54  102.0000  99.0000  77.5000   C.3       1 RES1  23.5360
   383 23.54  102.0000  99.5000  77.5000   C.3       1 RES1  23.5360
   384 20.93  102.0000 103.0000  82.0000   C.3       1 RES1  20.9340
   385 22.26   98.0000 100.0000  77.5000   C.3       1 RES1  22.2650
   386 22.26   98.0000 100.0000  78.0000   C.3       1 RES1  22.2650
   387 22.26   98.0000 100.0000  78.5000   C.3       1 RES1  22.2650
   388 22.26   98.0000 100.5000  77.5000   C.3       1 RES1  22.2650
   389 22.26   98.0000 100.5000  78.0000   C.3       1 RES1  22.2650
   390 22.26   98.0000 100.5000  78.5000   C.3       1 RES1  22.2650
   391 22.26   98.0000 101.0000  77.5000   C.3       1 RES1  22.2650
   392 22.26   98.0000 101.0000  78.0000   C.3       1 RES1  22.2650
   393 22.26   98.0000 101.0000  78.5000   C.3       1 RES1  22.2650
   394 25.80  103.0000  99.5000  80.5000   C.3       1 RES1  25.8020
   395 25.80  103.0000  99.5000  81.0000   C.3       1 RES1  25.8020
   396 25.80  103.0000  99.5000  81.5000   C.3       1 RES1  25.8020
   397 25.80  103.5000  99.5000  80.5000   C.3       1 RES1  25.8020
   398 25.80  104.0000  99.5000  80.5000   C.3       1 RES1  25.8020
   399 20.83   97.5000 101.0000  79.5000   C.3       1 RES1  20.8280
   400 20.83   98.0000 101.0000  79.5000   C.3       1 RES1  20.8280
   401 20.83   98.5000 100.0000  79.5000   C.3       1 RES1  20.8280
   402 20.83   98.5000 100.5000  79.5000   C.3       1 RES1  20.8280
   403 20.83   98.5000 101.0000  79.5000   C.3       1 RES1  20.8280
   404 26.48  102.0000 101.0000  79.5000   C.3       1 RES1  26.4780
   405 20.62   98.5000  93.0000  81.0000   C.3       1 RES1  20.6200
   406 20.62   98.5000  93.0000  81.5000   C.3       1 RES1  20.6200
   407 20.62   98.5000  93.0000  82.0000   C.3       1 RES1  20.6200
   408 20.62   98.5000  93.5000  81.0000   C.3       1 RES1  20.6200
   409 20.62   98.5000  93.5000  81.5000   C.3       1 RES1  20.6200
   410 20.62   98.5000  93.5000  82.0000   C.3       1 RES1  20.6200
   411 20.62   98.5000  94.0000  81.0000   C.3       1 RES1  20.6200
   412 20.62   98.5000  94.0000  81.5000   C.3       1 RES1  20.6200
   413 20.62   98.5000  94.0000  82.0000   C.3       1 RES1  20.6200
   414 28.50  102.0000 101.5000  80.0000   C.3       1 RES1  28.5050
   415 28.50  102.0000 101.5000  80.5000   C.3       1 RES1  28.5050
   416 28.50  102.0000 101.5000  81.0000   C.3       1 RES1  28.5050
   417 28.50  102.0000 102.0000  80.0000   C.3       1 RES1  28.5050
   418 28.50  102.0000 102.0000  80.5000   C.3       1 RES1  28.5050
   419 28.50  102.0000 102.0000  81.0000   C.3       1 RES1  28.5050
   420 28.50  102.0000 102.5000  80.0000   C.3       1 RES1  28.5050
   421 28.50  102.0000 102.5000  80.5000   C.3       1 RES1  28.5050
   422 28.50  102.0000 102.5000  81.0000   C.3       1 RES1  28.5050
   423 26.08  104.5000 100.0000  80.5000   C.3       1 RES1  26.0850
   424 22.95  100.5000 101.5000  78.0000   C.3       1 RES1  22.9480
   425 22.95  100.5000 102.0000  78.0000   C.3       1 RES1  22.9480
   426 22.95  100.5000 102.5000  78.0000   C.3       1 RES1  22.9480
   427 20.25  101.0000 102.0000  79.5000   C.3       1 RES1  20.2540
   428 27.98  104.5000 102.0000  82.0000   C.3       1 RES1  27.9830
   429 20.67   98.5000  99.5000  79.5000   C.3       1 RES1  20.6720
   430 26.33  103.5000  99.5000  81.0000   C.3       1 RES1  26.3340
   431 26.33  103.5000  99.5000  81.5000   C.3       1 RES1  26.3340
   432 26.33  103.5000  99.5000  82.0000   C.3       1 RES1  26.3340
   433 20.19  104.5000 104.0000  81.0000   C.3       1 RES1  20.1930
   434 22.25  102.0000 100.5000  79.0000   C.3       1 RES1  22.2520
   435 21.36  100.0000 100.5000  79.0000   C.3       1 RES1  21.3650
   436 21.36  100.0000 101.0000  79.0000   C.3       1 RES1  21.3650
   437 21.36  100.0000 101.5000  79.0000   C.3       1 RES1  21.3650
   438 21.36  103.5000 100.5000  76.5000   C.3       1 RES1  21.3650
   439 21.36  103.5000 100.5000  77.0000   C.3       1 RES1  21.3650
   440 21.36  103.5000 100.5000  77.5000   C.3       1 RES1  21.3650
   441 21.36  103.5000 101.0000  76.5000   C.3       1 RES1  21.3650
   442 21.36  103.5000 101.0000  77.0000   C.3       1 RES1  21.3650
   443 21.36  103.5000 101.0000  77.5000   C.3       1 RES1  21.3650
   444 21.36  103.5000 101.5000  76.5000   C.3       1 RES1  21.3650
   445 21.36  103.5000 101.5000  77.0000   C.3       1 RES1  21.3650
   446 23.83  101.0000 102.0000  77.0000   C.3       1 RES1  23.8320
   447 23.83  101.0000 102.0000  77.5000   C.3       1 RES1  23.8320
   448 23.83  101.0000 102.0000  78.0000   C.3       1 RES1  23.8320
   449 23.83  101.0000 102.5000  77.0000   C.3       1 RES1  23.8320
   450 23.83  101.0000 102.5000  77.5000   C.3       1 RES1  23.8320
   451 23.83  101.0000 102.5000  78.0000   C.3       1 RES1  23.8320
   452 23.83  101.0000 103.0000  77.0000   C.3       1 RES1  23.8320
   453 23.83  101.0000 103.0000  77.5000   C.3       1 RES1  23.8320
   454 23.83  101.0000 103.0000  78.0000   C.3       1 RES1  23.8320
   455 21.05  100.5000 100.5000  81.5000   C.3       1 RES1  21.0480
   456 21.05  100.5000 101.0000  81.5000   C.3       1 RES1  21.0480
   457 21.05  100.5000 101.5000  80.5000   C.3       1 RES1  21.0480
   458 21.05  100.5000 101.5000  81.0000   C.3       1 RES1  21.0480
   459 21.05  100.5000 101.5000  81.5000   C.3       1 RES1  21.0480
   460 22.74  102.0000 103.5000  79.5000   C.3       1 RES1  22.7430
   461 20.62   99.5000 101.5000  79.0000   C.3       1 RES1  20.6160
   462 26.11  104.0000 101.0000  79.0000   C.3       1 RES1  26.1100
   463 21.16  100.5000 103.5000  77.5000   C.3       1 RES1  21.1570
   464 20.49  101.5000 102.5000  76.0000   C.3       1 RES1  20.4880
   465 20.49  102.0000 102.5000  76.0000   C.3       1 RES1  20.4880
   466 20.49  102.5000 102.5000  76.0000   C.3       1 RES1  20.4880
   467 22.74  106.0000  99.5000  81.0000   C.3       1 RES1  22.7440
   468 22.53  104.0000 100.0000  80.0000   C.3       1 RES1  22.5270
   469 23.20  103.5000 100.5000  83.0000   C.3       1 RES1  23.1990
   470 23.20  103.5000 101.0000  83.0000   C.3       1 RES1  23.1990
   471 23.20  103.5000 101.5000  83.0000   C.3       1 RES1  23.1990
   472 22.18   96.5000  98.0000  81.5000   C.3       1 RES1  22.1840
   473 22.18   96.5000  98.0000  82.0000   C.3       1 RES1  22.1840
   474 22.18   96.5000  98.0000  82.5000   C.3       1 RES1  22.1840
   475 22.18   97.0000  98.0000  81.5000   C.3       1 RES1  22.1840
   476 22.18   97.5000  98.0000  81.5000   C.3       1 RES1  22.1840
   477 22.14  102.5000 101.5000  77.0000   C.3       1 RES1  22.1400
   478 20.19  102.0000  96.5000  80.0000   C.3       1 RES1  20.1940
   479 20.19  102.0000  96.5000  80.5000   C.3       1 RES1  20.1940
   480 20.19  102.0000  96.5000  81.0000   C.3       1 RES1  20.1940
   481 20.19  102.5000  96.5000  80.0000   C.3       1 RES1  20.1940
   482 20.19  102.5000  96.5000  80.5000   C.3       1 RES1  20.1940
   483 20.19  102.5000  96.5000  81.0000   C.3       1 RES1  20.1940
   484 20.19  103.0000  96.5000  80.0000   C.3       1 RES1  20.1940
   485 20.19  103.0000  96.5000  80.5000   C.3       1 RES1  20.1940
   486 20.19  103.0000  96.5000  81.0000   C.3       1 RES1  20.1940
   487 20.72  102.5000  98.5000  79.5000   C.3       1 RES1  20.7230
   488 21.49  100.0000 101.5000  76.5000   C.3       1 RES1  21.4910
   489 21.49  100.0000 102.0000  76.5000   C.3       1 RES1  21.4910
   490 21.28  104.5000 100.0000  80.0000   C.3       1 RES1  21.2850
   491 21.28  100.0000 100.0000  78.5000   C.3       1 RES1  21.2760
   492 22.46  102.5000 103.5000  76.5000   C.3       1 RES1  22.4560
   493 25.61  102.5000 103.0000  82.0000   C.3       1 RES1  25.6110
   494 20.30   99.0000  96.5000  81.5000   C.3       1 RES1  20.3010
   495 20.30   99.0000  96.5000  82.0000   C.3       1 RES1  20.3010
   496 20.30   99.0000  96.5000  82.5000   C.3       1 RES1  20.3010
   497 20.23   96.0000 100.5000  80.0000   C.3       1 RES1  20.2250
   498 27.94  102.5000 101.0000  79.0000   C.3       1 RES1  27.9440
   499 27.94  103.0000 101.0000  79.0000   C.3       1 RES1  27.9440
   500 27.94  103.5000 101.0000  79.0000   C.3       1 RES1  27.9440
   501 25.22  102.5000 100.0000  82.0000   C.3       1 RES1  25.2160
   502 25.62  103.0000 103.0000  82.0000   C.3       1 RES1  25.6230
   503 25.62  103.5000 103.0000  82.0000   C.3       1 RES1  25.6230
   504 25.62  104.0000 103.0000  82.0000   C.3       1 RES1  25.6230
   505 20.65  100.0000 101.5000  79.5000   C.3       1 RES1  20.6530
   506 22.37  103.0000  98.5000  80.5000   C.3       1 RES1  22.3720
   507 22.37  103.0000  98.5000  81.0000   C.3       1 RES1  22.3720
   508 22.37  103.0000  98.5000  81.5000   C.3       1 RES1  22.3720
   509 22.37  103.5000  98.5000  80.5000   C.3       1 RES1  22.3720
   510 22.37  103.5000  98.5000  81.0000   C.3       1 RES1  22.3720
   511 22.37  103.5000  98.5000  81.5000   C.3       1 RES1  22.3720
   512 22.37  104.0000  98.5000  80.5000   C.3       1 RES1  22.3720
   513 22.37  104.0000  98.5000  81.0000   C.3       1 RES1  22.3720
   514 22.37  104.0000  98.5000  81.5000   C.3       1 RES1  22.3720
   515 20.63  106.5000 100.0000  81.0000   C.3       1 RES1  20.6280
   516 20.63  106.5000 100.0000  81.5000   C.3       1 RES1  20.6280
   517 20.63  106.5000 100.0000  82.0000   C.3       1 RES1  20.6280
   518 24.52  102.0000 100.5000  80.0000   C.3       1 RES1  24.5230
   519 27.95  104.5000 100.0000  83.0000   C.3       1 RES1  27.9520
   520 27.95  104.5000 100.5000  83.0000   C.3       1 RES1  27.9520
   521 27.95  104.5000 101.0000  83.0000   C.3       1 RES1  27.9520
   522 27.95  105.0000 100.0000  83.0000   C.3       1 RES1  27.9520
   523 27.95  105.0000 100.5000  83.0000   C.3       1 RES1  27.9520
   524 27.95  105.0000 101.0000  83.0000   C.3       1 RES1  27.9520
   525 27.95  105.5000 100.0000  83.0000   C.3       1 RES1  27.9520
   526 27.95  105.5000 100.5000  83.0000   C.3       1 RES1  27.9520
   527 27.95  105.5000 101.0000  83.0000   C.3       1 RES1  27.9520
   528 21.94  104.5000 103.5000  81.5000   C.3       1 RES1  21.9450
   529 21.90  104.0000 103.5000  82.0000   C.3       1 RES1  21.8970
   530 20.55   96.5000  98.5000  81.0000   C.3       1 RES1  20.5470
   531 20.55   96.5000  99.0000  81.0000   C.3       1 RES1  20.5470
   532 20.55   96.5000  99.5000  81.0000   C.3       1 RES1  20.5470
   533 20.55   97.0000  98.5000  81.0000   C.3       1 RES1  20.5470
   534 20.55   97.0000  99.0000  81.0000   C.3       1 RES1  20.5470
   535 20.55   97.0000  99.5000  81.0000   C.3       1 RES1  20.5470
   536 20.55   97.5000  98.5000  81.0000   C.3       1 RES1  20.5470
   537 20.55   97.5000  99.0000  81.0000   C.3       1 RES1  20.5470
   538 20.55   97.5000  99.5000  81.0000   C.3       1 RES1  20.5470
   539 22.09  102.0000  98.5000  80.5000   C.3       1 RES1  22.0940
   540 22.09  102.0000  98.5000  81.0000   C.3       1 RES1  22.0940
   541 22.09  102.0000  98.5000  81.5000   C.3       1 RES1  22.0940
   542 20.57  101.0000 104.0000  78.0000   C.3       1 RES1  20.5650
   543 22.24  102.5000  98.5000  80.5000   C.3       1 RES1  22.2370
   544 22.24  102.5000  98.5000  81.0000   C.3       1 RES1  22.2370
   545 22.24  102.5000  98.5000  81.5000   C.3       1 RES1  22.2370
   546 23.46  104.5000  99.5000  83.0000   C.3       1 RES1  23.4630
   547 23.46  105.0000  99.5000  83.0000   C.3       1 RES1  23.4630
   548 23.46  105.5000  99.5000  83.0000   C.3       1 RES1  23.4630
   549 21.21   99.0000 100.5000  77.0000   C.3       1 RES1  21.2120
   550 21.21   99.0000 101.0000  77.0000   C.3       1 RES1  21.2120
   551 21.21   99.0000 101.5000  77.0000   C.3       1 RES1  21.2120
   552 23.66  102.5000 100.5000  79.5000   C.3       1 RES1  23.6620
   553 23.66  103.0000 100.5000  79.5000   C.3       1 RES1  23.6620
   554 23.66  103.5000 100.5000  79.5000   C.3       1 RES1  23.6620
   555 26.94  102.0000 102.5000  81.5000   C.3       1 RES1  26.9410
   556 20.33  100.5000 102.5000  78.5000   C.3       1 RES1  20.3280
   557 20.35  101.0000 102.0000  80.0000   C.3       1 RES1  20.3520
   558 20.60  105.5000  99.0000  82.5000   C.3       1 RES1  20.6010
   559 20.89   98.0000  99.5000  79.5000   C.3       1 RES1  20.8930
   560 20.89   98.0000 100.0000  79.5000   C.3       1 RES1  20.8930
   561 20.89   98.0000 100.5000  79.5000   C.3       1 RES1  20.8930
   562 22.68  105.0000 102.5000  81.5000   C.3       1 RES1  22.6810
   563 24.65  105.0000 100.0000  80.5000   C.3       1 RES1  24.6490
   564 20.07  104.5000  99.5000  80.0000   C.3       1 RES1  20.0710
   565 21.84  104.0000  99.0000  80.0000   C.3       1 RES1  21.8410
   566 21.84  104.0000  99.5000  80.0000   C.3       1 RES1  21.8410
   567 22.96  104.0000 100.5000  79.5000   C.3       1 RES1  22.9580
   568 21.73   98.5000 101.5000  77.5000   C.3       1 RES1  21.7310
   569 21.73   98.5000 101.5000  78.0000   C.3       1 RES1  21.7310
   570 21.73   98.5000 101.5000  78.5000   C.3       1 RES1  21.7310
   571 21.73   99.0000 101.5000  77.5000   C.3       1 RES1  21.7310
   572 21.73   99.0000 101.5000  78.0000   C.3       1 RES1  21.7310
   573 21.73   99.0000 101.5000  78.5000   C.3       1 RES1  21.7310
   574 24.57  102.5000  99.5000  82.0000   C.3       1 RES1  24.5660
   575 20.82   98.5000  97.0000  82.5000   C.3       1 RES1  20.8240
   576 20.82   98.5000  97.5000  82.5000   C.3       1 RES1  20.8240
   577 20.82   98.5000  98.0000  82.5000   C.3       1 RES1  20.8240
   578 20.82   99.0000  97.0000  82.5000   C.3       1 RES1  20.8240
   579 20.82   99.0000  97.5000  82.5000   C.3       1 RES1  20.8240
   580 20.82   99.0000  98.0000  82.5000   C.3       1 RES1  20.8240
   581 20.82   99.5000  97.0000  82.5000   C.3       1 RES1  20.8240
   582 20.82   99.5000  97.5000  82.5000   C.3       1 RES1  20.8240
   583 20.82   99.5000  98.0000  82.5000   C.3       1 RES1  20.8240
   584 27.34  103.5000 100.0000  82.5000   C.3       1 RES1  27.3390
   585 23.67  101.0000 102.0000  76.5000   C.3       1 RES1  23.6700
   586 23.67  101.0000 102.5000  76.5000   C.3       1 RES1  23.6700
   587 23.67  101.0000 103.0000  76.5000   C.3       1 RES1  23.6700
   588 23.67  101.5000 102.0000  76.5000   C.3       1 RES1  23.6700
   589 23.67  101.5000 102.5000  76.5000   C.3       1 RES1  23.6700
   590 23.67  101.5000 103.0000  76.5000   C.3       1 RES1  23.6700
   591 23.67  102.0000 102.0000  76.5000   C.3       1 RES1  23.6700
   592 23.67  102.0000 102.5000  76.5000   C.3       1 RES1  23.6700
   593 23.67  102.0000 103.0000  76.5000   C.3       1 RES1  23.6700
   594 22.28  103.0000 100.5000  78.0000   C.3       1 RES1  22.2760
   595 22.28  103.5000 100.5000  78.0000   C.3       1 RES1  22.2760
   596 22.28  104.0000 100.5000  78.0000   C.3       1 RES1  22.2760
   597 20.19   99.5000 100.0000  79.5000   C.3       1 RES1  20.1860
   598 20.19   99.5000 100.0000  80.0000   C.3       1 RES1  20.1860
   599 20.19   99.5000 100.5000  79.5000   C.3       1 RES1  20.1860
   600 20.19   99.5000 100.5000  80.0000   C.3       1 RES1  20.1860
   601 20.19   99.5000 101.0000  79.5000   C.3       1 RES1  20.1860
   602 20.19   99.5000 101.0000  80.0000   C.3       1 RES1  20.1860
   603 21.86  102.5000 102.5000  82.5000   C.3       1 RES1  21.8580
   604 31.14  102.5000 101.5000  79.5000   C.3       1 RES1  31.1390
   605 31.14  102.5000 102.0000  79.5000   C.3       1 RES1  31.1390
   606 31.14  102.5000 102.5000  79.5000   C.3       1 RES1  31.1390
   607 31.14  103.0000 101.5000  79.5000   C.3       1 RES1  31.1390
   608 31.14  103.0000 102.0000  79.5000   C.3       1 RES1  31.1390
   609 31.14  103.0000 102.5000  79.5000   C.3       1 RES1  31.1390
   610 31.14  103.5000 101.5000  79.5000   C.3       1 RES1  31.1390
   611 31.14  103.5000 102.0000  79.5000   C.3       1 RES1  31.1390
   612 31.14  103.5000 102.5000  79.5000   C.3       1 RES1  31.1390
   613 27.66  104.5000 100.5000  80.5000   C.3       1 RES1  27.6610
   614 25.13  102.5000 103.5000  81.5000   C.3       1 RES1  25.1300
   615 26.94  105.5000 101.5000  81.0000   C.3       1 RES1  26.9390
   616 23.35  102.5000  99.5000  80.0000   C.3       1 RES1  23.3530
   617 23.35  103.0000  99.5000  80.0000   C.3       1 RES1  23.3530
   618 23.35  103.5000  99.5000  80.0000   C.3       1 RES1  23.3530
   619 30.75  104.5000 100.0000  81.5000   C.3       1 RES1  30.7470
   620 30.75  104.5000 100.0000  82.0000   C.3       1 RES1  30.7470
   621 30.75  104.5000 100.0000  82.5000   C.3       1 RES1  30.7470
   622 30.75  104.5000 100.5000  81.5000   C.3       1 RES1  30.7470
   623 30.75  104.5000 100.5000  82.0000   C.3       1 RES1  30.7470
   624 30.75  104.5000 100.5000  82.5000   C.3       1 RES1  30.7470
   625 30.75  104.5000 101.0000  81.5000   C.3       1 RES1  30.7470
   626 30.75  104.5000 101.0000  82.0000   C.3       1 RES1  30.7470
   627 30.75  104.5000 101.0000  82.5000   C.3       1 RES1  30.7470
   628 30.75  105.0000 100.0000  81.5000   C.3       1 RES1  30.7470
   629 30.75  105.0000 100.0000  82.0000   C.3       1 RES1  30.7470
   630 30.75  105.0000 100.0000  82.5000   C.3       1 RES1  30.7470
   631 30.75  105.0000 100.5000  81.5000   C.3       1 RES1  30.7470
   632 30.75  105.0000 100.5000  82.0000   C.3       1 RES1  30.7470
   633 30.75  105.0000 100.5000  82.5000   C.3       1 RES1  30.7470
   634 30.75  105.0000 101.0000  81.5000   C.3       1 RES1  30.7470
   635 30.75  105.0000 101.0000  82.0000   C.3       1 RES1  30.7470
   636 30.75  105.0000 101.0000  82.5000   C.3       1 RES1  30.7470
   637 30.75  105.5000 100.0000  81.5000   C.3       1 RES1  30.7470
   638 30.75  105.5000 100.0000  82.0000   C.3       1 RES1  30.7470
   639 30.75  105.5000 100.0000  82.5000   C.3       1 RES1  30.7470
   640 30.75  105.5000 100.5000  81.5000   C.3       1 RES1  30.7470
   641 30.75  105.5000 100.5000  82.0000   C.3       1 RES1  30.7470
   642 30.75  105.5000 100.5000  82.5000   C.3       1 RES1  30.7470
   643 30.75  105.5000 101.0000  81.5000   C.3       1 RES1  30.7470
   644 30.75  105.5000 101.0000  82.0000   C.3       1 RES1  30.7470
   645 30.75  105.5000 101.0000  82.5000   C.3       1 RES1  30.7470
   646 24.15  104.0000 101.0000  78.5000   C.3       1 RES1  24.1500
   647 24.58  106.0000  99.5000  81.5000   C.3       1 RES1  24.5790
   648 24.58  106.0000  99.5000  82.0000   C.3       1 RES1  24.5790
   649 24.58  106.0000  99.5000  82.5000   C.3       1 RES1  24.5790
   650 22.40  104.0000 100.5000  78.5000   C.3       1 RES1  22.4010
   651 27.07  103.0000 103.5000  80.0000   C.3       1 RES1  27.0700
   652 27.07  103.0000 103.5000  80.5000   C.3       1 RES1  27.0700
   653 27.07  103.0000 103.5000  81.0000   C.3       1 RES1  27.0700
   654 27.07  103.5000 103.5000  80.0000   C.3       1 RES1  27.0700
   655 27.07  103.5000 103.5000  80.5000   C.3       1 RES1  27.0700
   656 27.07  103.5000 103.5000  81.0000   C.3       1 RES1  27.0700
   657 27.07  104.0000 103.5000  80.0000   C.3       1 RES1  27.0700
   658 27.07  104.0000 103.5000  80.5000   C.3       1 RES1  27.0700
   659 27.07  104.0000 103.5000  81.0000   C.3       1 RES1  27.0700
   660 21.07  101.5000  99.5000  80.0000   C.3       1 RES1  21.0700
   661 21.14   98.0000  98.0000  81.5000   C.3       1 RES1  21.1430
   662 21.14   98.0000  98.5000  81.5000   C.3       1 RES1  21.1430
   663 21.14   98.0000  99.0000  81.5000   C.3       1 RES1  21.1430
   664 29.27  104.0000 100.5000  80.5000   C.3       1 RES1  29.2700
   665 29.27  104.0000 100.5000  81.0000   C.3       1 RES1  29.2700
   666 21.19  104.5000 100.5000  79.0000   C.3       1 RES1  21.1920
   667 22.34  102.0000 100.5000  79.5000   C.3       1 RES1  22.3410
   668 22.34  107.0000 101.0000  80.0000   C.3       1 RES1  22.3410
   669 22.34  107.0000 101.0000  80.5000   C.3       1 RES1  22.3410
   670 22.34  107.0000 101.0000  81.0000   C.3       1 RES1  22.3410
   671 22.34  107.0000 101.5000  80.0000   C.3       1 RES1  22.3410
   672 22.34  107.0000 101.5000  80.5000   C.3       1 RES1  22.3410
   673 22.34  107.0000 101.5000  81.0000   C.3       1 RES1  22.3410
   674 22.34  107.0000 102.0000  80.0000   C.3       1 RES1  22.3410
   675 22.34  107.0000 102.0000  80.5000   C.3       1 RES1  22.3410
   676 22.34  107.0000 102.0000  81.0000   C.3       1 RES1  22.3410
   677 20.89  101.5000 102.0000  82.0000   C.3       1 RES1  20.8850
   678 24.19  102.5000  99.0000  82.0000   C.3       1 RES1  24.1870
   679 21.06   97.5000  99.5000  78.0000   C.3       1 RES1  21.0590
   680 21.06   98.0000  99.5000  78.0000   C.3       1 RES1  21.0590
   681 21.06   98.0000  99.5000  78.5000   C.3       1 RES1  21.0590
   682 21.06   98.0000  99.5000  79.0000   C.3       1 RES1  21.0590
   683 21.06   98.5000  99.5000  78.0000   C.3       1 RES1  21.0590
   684 21.06   98.5000  99.5000  78.5000   C.3       1 RES1  21.0590
   685 21.06   98.5000  99.5000  79.0000   C.3       1 RES1  21.0590
   686 21.06  100.0000 100.0000  79.0000   C.3       1 RES1  21.0590
   687 21.06  100.0000 100.0000  79.5000   C.3       1 RES1  21.0590
   688 21.06  100.0000 100.5000  79.5000   C.3       1 RES1  21.0590
   689 21.06  100.0000 101.0000  79.5000   C.3       1 RES1  21.0590
   690 21.06  100.5000 100.0000  79.0000   C.3       1 RES1  21.0590
   691 21.06  100.5000 100.0000  79.5000   C.3       1 RES1  21.0590
   692 21.06  101.0000 100.0000  79.5000   C.3       1 RES1  21.0590
   693 26.73  102.0000 103.0000  79.5000   C.3       1 RES1  26.7280
   694 25.48  105.5000  99.5000  81.0000   C.3       1 RES1  25.4840
   695 20.58  100.0000  99.0000  81.5000   C.3       1 RES1  20.5750
   696 20.58  100.0000  99.5000  81.5000   C.3       1 RES1  20.5750
   697 26.55  102.0000 101.0000  82.0000   C.3       1 RES1  26.5500
   698 26.55  102.0000 101.5000  82.0000   C.3       1 RES1  26.5500
   699 26.55  102.0000 102.0000  82.0000   C.3       1 RES1  26.5500
   700 20.10   99.5000  99.5000  80.0000   C.3       1 RES1  20.1040
   701 20.10   99.5000  99.5000  80.5000   C.3       1 RES1  20.1040
   702 20.10   99.5000  99.5000  81.0000   C.3       1 RES1  20.1040
   703 20.10   99.5000 100.0000  80.5000   C.3       1 RES1  20.1040
   704 20.10   99.5000 100.0000  81.0000   C.3       1 RES1  20.1040
   705 20.10   99.5000 100.5000  80.5000   C.3       1 RES1  20.1040
   706 20.10   99.5000 100.5000  81.0000   C.3       1 RES1  20.1040
   707 20.10  100.0000  99.5000  80.0000   C.3       1 RES1  20.1040
   708 20.10  100.0000  99.5000  80.5000   C.3       1 RES1  20.1040
   709 20.10  100.0000  99.5000  81.0000   C.3       1 RES1  20.1040
   710 20.10  100.5000  99.5000  80.0000   C.3       1 RES1  20.1040
   711 20.10  100.5000  99.5000  80.5000   C.3       1 RES1  20.1040
   712 20.10  100.5000  99.5000  81.0000   C.3       1 RES1  20.1040
   713 29.71  102.5000 103.0000  79.5000   C.3       1 RES1  29.7100
   714 21.52  100.0000 100.0000  80.0000   C.3       1 RES1  21.5210
   715 21.52  100.0000 100.0000  80.5000   C.3       1 RES1  21.5210
   716 21.52  100.0000 100.0000  81.0000   C.3       1 RES1  21.5210
   717 21.52  100.0000 100.5000  80.0000   C.3       1 RES1  21.5210
   718 21.52  100.0000 100.5000  80.5000   C.3       1 RES1  21.5210
   719 21.52  100.0000 100.5000  81.0000   C.3       1 RES1  21.5210
   720 21.52  100.0000 101.0000  80.0000   C.3       1 RES1  21.5210
   721 21.52  100.0000 101.0000  80.5000   C.3       1 RES1  21.5210
   722 21.52  100.0000 101.0000  81.0000   C.3       1 RES1  21.5210
   723 21.52  100.5000 100.0000  80.0000   C.3       1 RES1  21.5210
   724 21.52  100.5000 100.0000  80.5000   C.3       1 RES1  21.5210
   725 21.52  100.5000 100.0000  81.0000   C.3       1 RES1  21.5210
   726 21.52  100.5000 100.5000  80.0000   C.3       1 RES1  21.5210
   727 21.52  100.5000 100.5000  80.5000   C.3       1 RES1  21.5210
   728 21.52  100.5000 100.5000  81.0000   C.3       1 RES1  21.5210
   729 21.52  100.5000 101.0000  80.0000   C.3       1 RES1  21.5210
   730 21.52  100.5000 101.0000  80.5000   C.3       1 RES1  21.5210
   731 21.52  100.5000 101.0000  81.0000   C.3       1 RES1  21.5210
   732 21.52  101.0000 100.0000  80.0000   C.3       1 RES1  21.5210
   733 21.52  101.0000 100.0000  80.5000   C.3       1 RES1  21.5210
   734 21.52  101.0000 100.0000  81.0000   C.3       1 RES1  21.5210
   735 30.63  102.5000 101.5000  79.0000   C.3       1 RES1  30.6300
   736 30.63  102.5000 102.0000  79.0000   C.3       1 RES1  30.6300
   737 30.63  102.5000 102.5000  79.0000   C.3       1 RES1  30.6300
   738 30.63  103.0000 101.5000  79.0000   C.3       1 RES1  30.6300
   739 30.63  103.5000 101.5000  79.0000   C.3       1 RES1  30.6300
   740 27.80  105.0000 101.5000  81.0000   C.3       1 RES1  27.7990
   741 22.68  105.5000 100.5000  80.0000   C.3       1 RES1  22.6820
   742 22.68  106.0000 100.5000  80.0000   C.3       1 RES1  22.6820
   743 22.68  106.5000 100.5000  80.0000   C.3       1 RES1  22.6820
   744 21.22  103.0000 100.0000  78.0000   C.3       1 RES1  21.2240
   745 21.22  103.0000 100.0000  78.5000   C.3       1 RES1  21.2240
   746 21.22  103.0000 100.0000  79.0000   C.3       1 RES1  21.2240
   747 21.22  103.5000 100.0000  78.0000   C.3       1 RES1  21.2240
   748 21.22  103.5000 100.0000  78.5000   C.3       1 RES1  21.2240
   749 21.22  103.5000 100.0000  79.0000   C.3       1 RES1  21.2240
   750 27.42  105.5000 101.5000  81.5000   C.3       1 RES1  27.4190
   751 27.42  105.5000 101.5000  82.0000   C.3       1 RES1  27.4190
   752 27.42  105.5000 101.5000  82.5000   C.3       1 RES1  27.4190
   753 23.65  101.5000  99.5000  78.0000   C.3       1 RES1  23.6460
   754 23.65  101.5000  99.5000  78.5000   C.3       1 RES1  23.6460
   755 23.65  101.5000  99.5000  79.0000   C.3       1 RES1  23.6460
   756 23.65  102.0000  98.5000  78.0000   C.3       1 RES1  23.6460
   757 23.65  102.0000  99.0000  78.0000   C.3       1 RES1  23.6460
   758 23.65  102.0000  99.5000  78.0000   C.3       1 RES1  23.6460
   759 23.65  102.0000  99.5000  78.5000   C.3       1 RES1  23.6460
   760 23.65  102.0000  99.5000  79.0000   C.3       1 RES1  23.6460
   761 26.63  105.5000 101.0000  80.5000   C.3       1 RES1  26.6280
   762 26.63  105.5000 102.0000  81.0000   C.3       1 RES1  26.6280
   763 26.63  106.0000 101.0000  80.5000   C.3       1 RES1  26.6280
   764 26.63  106.0000 101.0000  81.0000   C.3       1 RES1  26.6280
   765 26.63  106.0000 101.5000  81.0000   C.3       1 RES1  26.6280
   766 26.63  106.0000 102.0000  81.0000   C.3       1 RES1  26.6280
   767 26.63  106.5000 101.0000  80.0000   C.3       1 RES1  26.6280
   768 26.63  106.5000 101.0000  80.5000   C.3       1 RES1  26.6280
   769 26.63  106.5000 101.0000  81.0000   C.3       1 RES1  26.6280
   770 26.63  106.5000 101.5000  81.0000   C.3       1 RES1  26.6280
   771 26.63  106.5000 102.0000  81.0000   C.3       1 RES1  26.6280
   772 21.87  101.5000 100.0000  76.0000   C.3       1 RES1  21.8720
   773 21.87  101.5000 100.5000  76.0000   C.3       1 RES1  21.8720
   774 21.87  101.5000 101.0000  76.0000   C.3       1 RES1  21.8720
   775 21.52  100.0000 102.0000  78.5000   C.3       1 RES1  21.5160
   776 21.52  100.5000 102.0000  78.5000   C.3       1 RES1  21.5160
   777 27.72  103.0000 100.0000  81.0000   C.3       1 RES1  27.7230
   778 27.72  103.0000 100.0000  81.5000   C.3       1 RES1  27.7230
   779 27.72  103.0000 100.0000  82.0000   C.3       1 RES1  27.7230
   780 22.56  102.5000  99.0000  77.5000   C.3       1 RES1  22.5630
   781 22.56  102.5000  99.5000  77.5000   C.3       1 RES1  22.5630
   782 22.56  102.5000 100.0000  77.5000   C.3       1 RES1  22.5630
   783 22.19  102.0000  99.0000  80.0000   C.3       1 RES1  22.1870
   784 22.19  102.0000  99.5000  80.0000   C.3       1 RES1  22.1870
   785 24.12  103.0000 100.0000  82.5000   C.3       1 RES1  24.1170
   786 23.56  102.5000 101.5000  77.5000   C.3       1 RES1  23.5580
   787 29.80  104.0000 101.5000  79.0000   C.3       1 RES1  29.8030
   788 20.98   98.5000  97.0000  81.0000   C.3       1 RES1  20.9800
   789 20.98   98.5000  97.0000  81.5000   C.3       1 RES1  20.9800
   790 20.98   98.5000  97.0000  82.0000   C.3       1 RES1  20.9800
   791 20.98   98.5000  97.5000  81.0000   C.3       1 RES1  20.9800
   792 20.98   98.5000  97.5000  81.5000   C.3       1 RES1  20.9800
   793 20.98   98.5000  97.5000  82.0000   C.3       1 RES1  20.9800
   794 20.98   98.5000  98.0000  81.0000   C.3       1 RES1  20.9800
   795 20.98   98.5000  98.0000  81.5000   C.3       1 RES1  20.9800
   796 20.98   98.5000  98.0000  82.0000   C.3       1 RES1  20.9800
   797 20.98   99.0000  97.0000  81.0000   C.3       1 RES1  20.9800
   798 20.98   99.0000  97.0000  81.5000   C.3       1 RES1  20.9800
   799 20.98   99.0000  97.0000  82.0000   C.3       1 RES1  20.9800
   800 20.98   99.0000  97.5000  81.0000   C.3       1 RES1  20.9800
   801 20.98   99.0000  97.5000  81.5000   C.3       1 RES1  20.9800
   802 20.98   99.0000  97.5000  82.0000   C.3       1 RES1  20.9800
   803 20.98   99.0000  98.0000  81.0000   C.3       1 RES1  20.9800
   804 20.98   99.0000  98.0000  81.5000   C.3       1 RES1  20.9800
   805 20.98   99.0000  98.0000  82.0000   C.3       1 RES1  20.9800
   806 20.98   99.5000  97.0000  81.0000   C.3       1 RES1  20.9800
   807 20.98   99.5000  97.0000  81.5000   C.3       1 RES1  20.9800
   808 20.98   99.5000  97.0000  82.0000   C.3       1 RES1  20.9800
   809 20.98   99.5000  97.5000  81.0000   C.3       1 RES1  20.9800
   810 20.98   99.5000  97.5000  81.5000   C.3       1 RES1  20.9800
   811 20.98   99.5000  97.5000  82.0000   C.3       1 RES1  20.9800
   812 20.98   99.5000  98.0000  81.0000   C.3       1 RES1  20.9800
   813 20.98   99.5000  98.0000  81.5000   C.3       1 RES1  20.9800
   814 20.98   99.5000  98.0000  82.0000   C.3       1 RES1  20.9800
   815 27.42  104.5000 102.5000  81.0000   C.3       1 RES1  27.4220
   816 27.42  104.5000 102.5000  81.5000   C.3       1 RES1  27.4220
   817 22.63  101.5000 100.0000  79.0000   C.3       1 RES1  22.6270
   818 22.63  102.0000 100.0000  79.0000   C.3       1 RES1  22.6270
   819 22.63  102.5000 100.0000  78.0000   C.3       1 RES1  22.6270
   820 22.63  102.5000 100.0000  78.5000   C.3       1 RES1  22.6270
   821 22.63  102.5000 100.0000  79.0000   C.3       1 RES1  22.6270
   822 22.12  105.5000 102.5000  81.5000   C.3       1 RES1  22.1180
   823 22.12  106.0000 102.5000  81.5000   C.3       1 RES1  22.1180
   824 21.34  101.5000 102.5000  80.5000   C.3       1 RES1  21.3370
   825 21.34  101.5000 102.5000  81.0000   C.3       1 RES1  21.3370
   826 20.35   99.0000  95.0000  81.0000   C.3       1 RES1  20.3500
   827 20.35   99.0000  95.0000  81.5000   C.3       1 RES1  20.3500
   828 20.35   99.0000  95.0000  82.0000   C.3       1 RES1  20.3500
   829 20.35   99.0000  95.5000  81.0000   C.3       1 RES1  20.3500
   830 20.35   99.0000  95.5000  81.5000   C.3       1 RES1  20.3500
   831 20.35   99.0000  95.5000  82.0000   C.3       1 RES1  20.3500
   832 20.35   99.0000  96.0000  81.0000   C.3       1 RES1  20.3500
   833 20.35   99.0000  96.0000  81.5000   C.3       1 RES1  20.3500
   834 20.35   99.0000  96.0000  82.0000   C.3       1 RES1  20.3500
   835 20.35   99.5000  95.0000  81.0000   C.3       1 RES1  20.3500
   836 20.35   99.5000  95.0000  81.5000   C.3       1 RES1  20.3500
   837 20.35   99.5000  95.0000  82.0000   C.3       1 RES1  20.3500
   838 20.35   99.5000  95.5000  81.0000   C.3       1 RES1  20.3500
   839 20.35   99.5000  95.5000  81.5000   C.3       1 RES1  20.3500
   840 20.35   99.5000  95.5000  82.0000   C.3       1 RES1  20.3500
   841 20.35   99.5000  96.0000  81.0000   C.3       1 RES1  20.3500
   842 20.35   99.5000  96.0000  81.5000   C.3       1 RES1  20.3500
   843 20.35   99.5000  96.0000  82.0000   C.3       1 RES1  20.3500
   844 20.35  100.0000  95.0000  81.0000   C.3       1 RES1  20.3500
   845 20.35  100.0000  95.0000  81.5000   C.3       1 RES1  20.3500
   846 20.35  100.0000  95.0000  82.0000   C.3       1 RES1  20.3500
   847 20.35  100.0000  95.5000  81.0000   C.3       1 RES1  20.3500
   848 20.35  100.0000  95.5000  81.5000   C.3       1 RES1  20.3500
   849 20.35  100.0000  95.5000  82.0000   C.3       1 RES1  20.3500
   850 20.35  100.0000  96.0000  81.0000   C.3       1 RES1  20.3500
   851 20.35  100.0000  96.0000  81.5000   C.3       1 RES1  20.3500
   852 20.35  100.0000  96.0000  82.0000   C.3       1 RES1  20.3500
   853 20.74   96.5000  99.5000  80.0000   C.3       1 RES1  20.7430
   854 20.74   96.5000 100.0000  80.0000   C.3       1 RES1  20.7430
   855 20.74   96.5000 100.5000  80.0000   C.3       1 RES1  20.7430
   856 20.74   97.0000  99.5000  80.0000   C.3       1 RES1  20.7430
   857 20.74   97.0000 100.0000  80.0000   C.3       1 RES1  20.7430
   858 20.74   97.0000 100.5000  80.0000   C.3       1 RES1  20.7430
   859 20.74   97.5000  99.5000  80.0000   C.3       1 RES1  20.7430
   860 20.74   97.5000 100.0000  80.0000   C.3       1 RES1  20.7430
   861 20.74   97.5000 100.5000  80.0000   C.3       1 RES1  20.7430
   862 22.40  102.0000 101.5000  76.5000   C.3       1 RES1  22.3970
   863 22.27  105.5000 102.0000  82.0000   C.3       1 RES1  22.2680
   864 22.27  106.0000 102.0000  82.0000   C.3       1 RES1  22.2680
   865 30.27  104.0000 100.0000  81.5000   C.3       1 RES1  30.2670
   866 30.27  104.0000 100.0000  82.0000   C.3       1 RES1  30.2670
   867 30.27  104.0000 100.0000  82.5000   C.3       1 RES1  30.2670
   868 30.27  104.0000 100.5000  81.5000   C.3       1 RES1  30.2670
   869 30.27  104.0000 100.5000  82.0000   C.3       1 RES1  30.2670
   870 30.27  104.0000 100.5000  82.5000   C.3       1 RES1  30.2670
   871 30.27  104.0000 101.0000  82.0000   C.3       1 RES1  30.2670
   872 30.27  104.0000 101.0000  82.5000   C.3       1 RES1  30.2670
   873 26.31  106.0000 100.0000  81.0000   C.3       1 RES1  26.3080
   874 26.31  106.0000 100.5000  81.0000   C.3       1 RES1  26.3080
   875 20.22  102.0000  98.0000  78.0000   C.3       1 RES1  20.2170
   876 23.06  100.5000 101.5000  76.5000   C.3       1 RES1  23.0640
   877 23.06  100.5000 101.5000  77.0000   C.3       1 RES1  23.0640
   878 23.06  100.5000 101.5000  77.5000   C.3       1 RES1  23.0640
   879 23.06  100.5000 102.0000  76.5000   C.3       1 RES1  23.0640
   880 23.06  100.5000 102.0000  77.0000   C.3       1 RES1  23.0640
   881 23.06  100.5000 102.0000  77.5000   C.3       1 RES1  23.0640
   882 23.06  100.5000 102.5000  77.5000   C.3       1 RES1  23.0640
   883 23.06  101.0000 101.5000  76.5000   C.3       1 RES1  23.0640
   884 23.06  101.0000 101.5000  77.0000   C.3       1 RES1  23.0640
   885 23.06  101.5000 101.5000  76.5000   C.3       1 RES1  23.0640
   886 23.06  101.5000 101.5000  77.0000   C.3       1 RES1  23.0640
   887 27.55  102.0000 101.0000  80.0000   C.3       1 RES1  27.5490
   888 22.00  102.0000 100.0000  76.0000   C.3       1 RES1  21.9990
   889 22.00  102.0000 100.0000  76.5000   C.3       1 RES1  21.9990
   890 22.00  102.0000 100.5000  76.0000   C.3       1 RES1  21.9990
   891 22.00  102.0000 100.5000  76.5000   C.3       1 RES1  21.9990
   892 22.00  102.0000 101.0000  76.0000   C.3       1 RES1  21.9990
   893 22.00  102.0000 101.0000  76.5000   C.3       1 RES1  21.9990
   894 22.00  102.5000 100.0000  76.0000   C.3       1 RES1  21.9990
   895 22.00  102.5000 100.0000  76.5000   C.3       1 RES1  21.9990
   896 22.00  102.5000 100.0000  77.0000   C.3       1 RES1  21.9990
   897 22.00  102.5000 100.5000  76.0000   C.3       1 RES1  21.9990
   898 22.00  102.5000 100.5000  76.5000   C.3       1 RES1  21.9990
   899 22.00  102.5000 100.5000  77.0000   C.3       1 RES1  21.9990
   900 22.00  102.5000 101.0000  76.0000   C.3       1 RES1  21.9990
   901 22.00  102.5000 101.0000  76.5000   C.3       1 RES1  21.9990
   902 22.00  102.5000 101.0000  77.0000   C.3       1 RES1  21.9990
   903 22.00  103.0000 100.0000  76.0000   C.3       1 RES1  21.9990
   904 22.00  103.0000 100.0000  76.5000   C.3       1 RES1  21.9990
   905 22.00  103.0000 100.0000  77.0000   C.3       1 RES1  21.9990
   906 22.00  103.0000 100.5000  76.0000   C.3       1 RES1  21.9990
   907 22.00  103.0000 100.5000  76.5000   C.3       1 RES1  21.9990
   908 22.00  103.0000 100.5000  77.0000   C.3       1 RES1  21.9990
   909 22.00  103.0000 101.0000  76.0000   C.3       1 RES1  21.9990
   910 22.00  103.0000 101.0000  76.5000   C.3       1 RES1  21.9990
   911 22.00  103.0000 101.0000  77.0000   C.3       1 RES1  21.9990
   912 22.43  101.5000 100.0000  81.5000   C.3       1 RES1  22.4340
   913 23.93  104.5000 103.5000  81.0000   C.3       1 RES1  23.9260
   914 20.34   96.0000  99.0000  79.5000   C.3       1 RES1  20.3370
   915 20.34   96.5000  99.0000  79.5000   C.3       1 RES1  20.3370
   916 20.34   97.0000  99.0000  79.5000   C.3       1 RES1  20.3370
   917 21.86   99.0000  93.0000  81.0000   C.3       1 RES1  21.8640
   918 21.86   99.0000  93.0000  81.5000   C.3       1 RES1  21.8640
   919 21.86   99.0000  93.0000  82.0000   C.3       1 RES1  21.8640
   920 21.86   99.0000  93.5000  81.0000   C.3       1 RES1  21.8640
   921 21.86   99.0000  93.5000  81.5000   C.3       1 RES1  21.8640
   922 21.86   99.0000  93.5000  82.0000   C.3       1 RES1  21.8640
   923 21.86   99.0000  94.0000  81.0000   C.3       1 RES1  21.8640
   924 21.86   99.0000  94.0000  81.5000   C.3       1 RES1  21.8640
   925 21.86   99.0000  94.0000  82.0000   C.3       1 RES1  21.8640
   926 21.86   99.5000  93.0000  81.0000   C.3       1 RES1  21.8640
   927 21.86   99.5000  93.0000  81.5000   C.3       1 RES1  21.8640
   928 21.86   99.5000  93.0000  82.0000   C.3       1 RES1  21.8640
   929 21.86   99.5000  93.5000  81.0000   C.3       1 RES1  21.8640
   930 21.86   99.5000  93.5000  81.5000   C.3       1 RES1  21.8640
   931 21.86   99.5000  93.5000  82.0000   C.3       1 RES1  21.8640
   932 21.86   99.5000  94.0000  81.0000   C.3       1 RES1  21.8640
   933 21.86   99.5000  94.0000  81.5000   C.3       1 RES1  21.8640
   934 21.86   99.5000  94.0000  82.0000   C.3       1 RES1  21.8640
   935 21.86  100.0000  93.0000  81.0000   C.3       1 RES1  21.8640
   936 21.86  100.0000  93.0000  81.5000   C.3       1 RES1  21.8640
   937 21.86  100.0000  93.0000  82.0000   C.3       1 RES1  21.8640
   938 21.86  100.0000  93.5000  81.0000   C.3       1 RES1  21.8640
   939 21.86  100.0000  93.5000  81.5000   C.3       1 RES1  21.8640
   940 21.86  100.0000  93.5000  82.0000   C.3       1 RES1  21.8640
   941 21.86  100.0000  94.0000  81.0000   C.3       1 RES1  21.8640
   942 21.86  100.0000  94.0000  81.5000   C.3       1 RES1  21.8640
   943 21.86  100.0000  94.0000  82.0000   C.3       1 RES1  21.8640
   944 20.90  105.5000  99.0000  81.0000   C.3       1 RES1  20.9010
   945 20.90  105.5000  99.0000  81.5000   C.3       1 RES1  20.9010
   946 20.90  105.5000  99.0000  82.0000   C.3       1 RES1  20.9010
   947 24.38  102.0000  99.0000  80.5000   C.3       1 RES1  24.3780
   948 24.38  102.0000  99.0000  81.0000   C.3       1 RES1  24.3780
   949 24.38  102.0000  99.0000  81.5000   C.3       1 RES1  24.3780
   950 24.38  102.0000  99.5000  80.5000   C.3       1 RES1  24.3780
   951 24.38  102.0000  99.5000  81.0000   C.3       1 RES1  24.3780
   952 24.38  102.0000  99.5000  81.5000   C.3       1 RES1  24.3780
   953 24.38  102.0000 100.0000  80.5000   C.3       1 RES1  24.3780
   954 24.38  102.0000 100.0000  81.0000   C.3       1 RES1  24.3780
   955 24.38  102.0000 100.0000  81.5000   C.3       1 RES1  24.3780
   956 21.43  101.0000  99.0000  77.0000   C.3       1 RES1  21.4290
   957 21.43  101.0000  99.5000  77.0000   C.3       1 RES1  21.4290
   958 21.43  101.5000  99.0000  77.0000   C.3       1 RES1  21.4290
   959 21.43  101.5000  99.5000  77.0000   C.3       1 RES1  21.4290
   960 21.43  102.0000  99.0000  77.0000   C.3       1 RES1  21.4290
   961 21.43  102.0000  99.5000  77.0000   C.3       1 RES1  21.4290
   962 23.60  102.0000 100.0000  82.0000   C.3       1 RES1  23.6050
   963 20.85   99.0000  93.5000  82.5000   C.3       1 RES1  20.8510
   964 20.85   99.0000  94.0000  82.5000   C.3       1 RES1  20.8510
   965 20.85   99.5000  94.0000  82.5000   C.3       1 RES1  20.8510
   966 20.85  100.0000  94.0000  82.5000   C.3       1 RES1  20.8510
   967 27.70  102.5000 102.5000  82.0000   C.3       1 RES1  27.7000
   968 21.72  104.5000  98.5000  80.5000   C.3       1 RES1  21.7210
   969 21.72  104.5000  98.5000  81.0000   C.3       1 RES1  21.7210
   970 21.72  104.5000  98.5000  81.5000   C.3       1 RES1  21.7210
   971 20.33  103.0000 100.5000  83.0000   C.3       1 RES1  20.3260
   972 20.33  103.0000 101.0000  83.0000   C.3       1 RES1  20.3260
   973 20.33  103.0000 101.5000  83.0000   C.3       1 RES1  20.3260
   974 21.52   98.0000 101.5000  77.5000   C.3       1 RES1  21.5180
   975 21.52   98.0000 101.5000  78.0000   C.3       1 RES1  21.5180
   976 21.52   98.0000 101.5000  78.5000   C.3       1 RES1  21.5180
   977 20.16  102.5000  97.0000  79.5000   C.3       1 RES1  20.1570
   978 22.79  102.5000 100.5000  82.5000   C.3       1 RES1  22.7860
   979 20.88   97.0000 100.0000  78.0000   C.3       1 RES1  20.8800
   980 20.88   97.0000 100.5000  78.0000   C.3       1 RES1  20.8800
   981 20.88   97.0000 101.0000  78.0000   C.3       1 RES1  20.8800
   982 20.88   97.0000 101.0000  78.5000   C.3       1 RES1  20.8800
   983 20.88   97.0000 101.0000  79.0000   C.3       1 RES1  20.8800
   984 20.08  101.0000 100.5000  82.5000   C.3       1 RES1  20.0750
   985 20.08  101.5000 100.5000  82.5000   C.3       1 RES1  20.0750
   986 20.08  102.0000  99.5000  82.5000   C.3       1 RES1  20.0750
   987 20.08  102.0000 100.0000  82.5000   C.3       1 RES1  20.0750
   988 20.74  104.0000  99.5000  83.0000   C.3       1 RES1  20.7370
   989 23.76  103.0000 102.5000  82.5000   C.3       1 RES1  23.7630
   990 23.76  103.5000 102.5000  82.5000   C.3       1 RES1  23.7630
   991 23.76  104.0000 102.5000  82.5000   C.3       1 RES1  23.7630
   992 20.18  101.0000  98.5000  77.0000   C.3       1 RES1  20.1850
   993 20.18  101.5000  98.5000  77.0000   C.3       1 RES1  20.1850
   994 20.18  102.0000  98.5000  77.0000   C.3       1 RES1  20.1850
   995 20.57  103.0000  98.0000  81.5000   C.3       1 RES1  20.5660
   996 20.57  103.5000  98.0000  81.5000   C.3       1 RES1  20.5660
   997 20.57  104.0000  98.0000  80.5000   C.3       1 RES1  20.5660
   998 20.57  104.0000  98.0000  81.0000   C.3       1 RES1  20.5660
   999 20.57  104.0000  98.0000  81.5000   C.3       1 RES1  20.5660
  1000 22.48  104.0000 100.5000  79.0000   C.3       1 RES1  22.4760
  1001 20.82   96.0000  99.5000  78.5000   C.3       1 RES1  20.8150
  1002 20.82   96.0000  99.5000  79.0000   C.3       1 RES1  20.8150
  1003 20.82   96.0000  99.5000  79.5000   C.3       1 RES1  20.8150
  1004 20.82   96.0000 100.0000  78.5000   C.3       1 RES1  20.8150
  1005 20.82   96.0000 100.0000  79.0000   C.3       1 RES1  20.8150
  1006 20.82   96.0000 100.0000  79.5000   C.3       1 RES1  20.8150
  1007 20.82   96.0000 100.5000  78.5000   C.3       1 RES1  20.8150
  1008 20.82   96.0000 100.5000  79.0000   C.3       1 RES1  20.8150
  1009 20.82   96.0000 100.5000  79.5000   C.3       1 RES1  20.8150
  1010 21.97  103.5000 100.0000  83.0000   C.3       1 RES1  21.9670
  1011 20.18  105.0000 100.5000  79.5000   C.3       1 RES1  20.1800
  1012 21.85  102.0000 101.5000  76.0000   C.3       1 RES1  21.8520
  1013 21.85  102.5000 101.5000  76.0000   C.3       1 RES1  21.8520
  1014 21.85  102.5000 101.5000  76.5000   C.3       1 RES1  21.8520
  1015 21.85  103.0000 101.5000  76.0000   C.3       1 RES1  21.8520
  1016 21.85  103.0000 101.5000  76.5000   C.3       1 RES1  21.8520
  1017 21.85  103.0000 101.5000  77.0000   C.3       1 RES1  21.8520
  1018 22.29   96.5000  98.5000  81.5000   C.3       1 RES1  22.2910
  1019 22.29   96.5000  98.5000  82.0000   C.3       1 RES1  22.2910
  1020 22.29   96.5000  98.5000  82.5000   C.3       1 RES1  22.2910
  1021 22.29   96.5000  99.0000  81.5000   C.3       1 RES1  22.2910
  1022 22.29   96.5000  99.0000  82.0000   C.3       1 RES1  22.2910
  1023 22.29   96.5000  99.0000  82.5000   C.3       1 RES1  22.2910
  1024 22.29   96.5000  99.5000  81.5000   C.3       1 RES1  22.2910
  1025 22.29   96.5000  99.5000  82.0000   C.3       1 RES1  22.2910
  1026 22.29   96.5000  99.5000  82.5000   C.3       1 RES1  22.2910
  1027 22.29   97.0000  98.5000  81.5000   C.3       1 RES1  22.2910
  1028 22.29   97.0000  98.5000  82.0000   C.3       1 RES1  22.2910
  1029 22.29   97.0000  98.5000  82.5000   C.3       1 RES1  22.2910
  1030 22.29   97.0000  99.0000  81.5000   C.3       1 RES1  22.2910
  1031 22.29   97.0000  99.0000  82.0000   C.3       1 RES1  22.2910
  1032 22.29   97.0000  99.0000  82.5000   C.3       1 RES1  22.2910
  1033 22.29   97.0000  99.5000  81.5000   C.3       1 RES1  22.2910
  1034 22.29   97.0000  99.5000  82.0000   C.3       1 RES1  22.2910
  1035 22.29   97.0000  99.5000  82.5000   C.3       1 RES1  22.2910
  1036 22.29   97.5000  98.5000  81.5000   C.3       1 RES1  22.2910
  1037 22.29   97.5000  98.5000  82.0000   C.3       1 RES1  22.2910
  1038 22.29   97.5000  98.5000  82.5000   C.3       1 RES1  22.2910
  1039 22.29   97.5000  99.0000  81.5000   C.3       1 RES1  22.2910
  1040 22.29   97.5000  99.0000  82.0000   C.3       1 RES1  22.2910
  1041 22.29   97.5000  99.0000  82.5000   C.3       1 RES1  22.2910
  1042 22.29   97.5000  99.5000  81.5000   C.3       1 RES1  22.2910
  1043 22.29   97.5000  99.5000  82.0000   C.3       1 RES1  22.2910
  1044 22.29   97.5000  99.5000  82.5000   C.3       1 RES1  22.2910
  1045 21.81   97.0000  99.5000  83.0000   C.3       1 RES1  21.8060
  1046 21.81   97.5000  99.5000  83.0000   C.3       1 RES1  21.8060
  1047 21.81   98.0000  99.5000  82.0000   C.3       1 RES1  21.8060
  1048 21.81   98.0000  99.5000  82.5000   C.3       1 RES1  21.8060
  1049 21.81   98.0000  99.5000  83.0000   C.3       1 RES1  21.8060
  1050 31.87  102.5000 101.0000  80.5000   C.3       1 RES1  31.8690
  1051 31.87  102.5000 101.0000  81.0000   C.3       1 RES1  31.8690
  1052 31.87  102.5000 101.0000  81.5000   C.3       1 RES1  31.8690
  1053 31.87  102.5000 101.5000  80.5000   C.3       1 RES1  31.8690
  1054 31.87  102.5000 101.5000  81.0000   C.3       1 RES1  31.8690
  1055 31.87  102.5000 101.5000  81.5000   C.3       1 RES1  31.8690
  1056 31.87  102.5000 102.0000  80.5000   C.3       1 RES1  31.8690
  1057 31.87  102.5000 102.0000  81.0000   C.3       1 RES1  31.8690
  1058 31.87  102.5000 102.0000  81.5000   C.3       1 RES1  31.8690
  1059 20.39   99.5000 102.0000  78.5000   C.3       1 RES1  20.3860
  1060 20.66  101.5000 102.5000  81.5000   C.3       1 RES1  20.6570
  1061 27.97  102.0000 101.0000  80.5000   C.3       1 RES1  27.9720
  1062 27.97  102.0000 101.0000  81.0000   C.3       1 RES1  27.9720
  1063 27.97  102.0000 101.0000  81.5000   C.3       1 RES1  27.9720
  1064 27.97  102.0000 101.5000  81.5000   C.3       1 RES1  27.9720
  1065 27.97  102.0000 102.0000  81.5000   C.3       1 RES1  27.9720
  1066 26.02  104.5000 102.5000  82.0000   C.3       1 RES1  26.0190
  1067 22.64  101.5000 100.5000  82.0000   C.3       1 RES1  22.6350
  1068 22.64  101.5000 101.0000  82.0000   C.3       1 RES1  22.6350
  1069 22.64  101.5000 101.5000  82.0000   C.3       1 RES1  22.6350
  1070 20.48   97.5000  96.0000  81.5000   C.3       1 RES1  20.4810
  1071 20.48   97.5000  96.0000  82.0000   C.3       1 RES1  20.4810
  1072 20.48   97.5000  96.0000  82.5000   C.3       1 RES1  20.4810
  1073 20.48   97.5000  96.5000  81.5000   C.3       1 RES1  20.4810
  1074 20.48   97.5000  96.5000  82.0000   C.3       1 RES1  20.4810
  1075 20.48   97.5000  96.5000  82.5000   C.3       1 RES1  20.4810
  1076 20.48   97.5000  97.0000  81.5000   C.3       1 RES1  20.4810
  1077 20.48   97.5000  97.0000  82.0000   C.3       1 RES1  20.4810
  1078 20.48   97.5000  97.0000  82.5000   C.3       1 RES1  20.4810
  1079 20.48   98.0000  96.0000  81.5000   C.3       1 RES1  20.4810
  1080 20.48   98.0000  96.0000  82.0000   C.3       1 RES1  20.4810
  1081 20.48   98.0000  96.0000  82.5000   C.3       1 RES1  20.4810
  1082 20.48   98.0000  96.5000  81.5000   C.3       1 RES1  20.4810
  1083 20.48   98.0000  96.5000  82.0000   C.3       1 RES1  20.4810
  1084 20.48   98.0000  96.5000  82.5000   C.3       1 RES1  20.4810
  1085 20.48   98.0000  97.0000  81.5000   C.3       1 RES1  20.4810
  1086 20.48   98.0000  97.0000  82.0000   C.3       1 RES1  20.4810
  1087 20.48   98.0000  97.0000  82.5000   C.3       1 RES1  20.4810
  1088 20.48   98.5000  96.0000  81.5000   C.3       1 RES1  20.4810
  1089 20.48   98.5000  96.0000  82.0000   C.3       1 RES1  20.4810
  1090 20.48   98.5000  96.0000  82.5000   C.3       1 RES1  20.4810
  1091 20.48   98.5000  96.5000  81.5000   C.3       1 RES1  20.4810
  1092 20.48   98.5000  96.5000  82.0000   C.3       1 RES1  20.4810
  1093 20.48   98.5000  96.5000  82.5000   C.3       1 RES1  20.4810
  1094 20.60  103.0000  99.0000  78.0000   C.3       1 RES1  20.5970
  1095 20.60  103.0000  99.0000  78.5000   C.3       1 RES1  20.5970
  1096 20.60  103.0000  99.0000  79.0000   C.3       1 RES1  20.5970
  1097 20.60  103.0000  99.5000  78.0000   C.3       1 RES1  20.5970
  1098 20.60  103.0000  99.5000  78.5000   C.3       1 RES1  20.5970
  1099 20.60  103.0000  99.5000  79.0000   C.3       1 RES1  20.5970
  1100 23.01  102.0000 101.5000  77.0000   C.3       1 RES1  23.0140
  1101 24.96  105.0000 102.0000  81.5000   C.3       1 RES1  24.9640
  1102 24.96  105.5000 102.0000  81.5000   C.3       1 RES1  24.9640
  1103 24.96  106.0000 102.0000  81.5000   C.3       1 RES1  24.9640
  1104 21.59  102.5000  97.0000  80.0000   C.3       1 RES1  21.5880
  1105 21.59  102.5000  97.0000  80.5000   C.3       1 RES1  21.5880
  1106 21.59  102.5000  97.0000  81.0000   C.3       1 RES1  21.5880
  1107 21.59  102.5000  97.5000  80.0000   C.3       1 RES1  21.5880
  1108 21.59  102.5000  97.5000  80.5000   C.3       1 RES1  21.5880
  1109 21.59  102.5000  97.5000  81.0000   C.3       1 RES1  21.5880
  1110 21.59  102.5000  98.0000  80.0000   C.3       1 RES1  21.5880
  1111 21.59  102.5000  98.0000  80.5000   C.3       1 RES1  21.5880
  1112 21.59  102.5000  98.0000  81.0000   C.3       1 RES1  21.5880
  1113 21.59  103.0000  97.0000  80.0000   C.3       1 RES1  21.5880
  1114 21.59  103.0000  97.0000  80.5000   C.3       1 RES1  21.5880
  1115 21.59  103.0000  97.0000  81.0000   C.3       1 RES1  21.5880
  1116 21.59  103.0000  97.5000  80.0000   C.3       1 RES1  21.5880
  1117 21.59  103.0000  97.5000  80.5000   C.3       1 RES1  21.5880
  1118 21.59  103.0000  97.5000  81.0000   C.3       1 RES1  21.5880
  1119 21.59  103.0000  98.0000  80.0000   C.3       1 RES1  21.5880
  1120 21.59  103.0000  98.0000  80.5000   C.3       1 RES1  21.5880
  1121 21.59  103.0000  98.0000  81.0000   C.3       1 RES1  21.5880
  1122 21.59  103.5000  97.0000  80.0000   C.3       1 RES1  21.5880
  1123 21.59  103.5000  97.0000  80.5000   C.3       1 RES1  21.5880
  1124 21.59  103.5000  97.0000  81.0000   C.3       1 RES1  21.5880
  1125 21.59  103.5000  97.5000  80.0000   C.3       1 RES1  21.5880
  1126 21.59  103.5000  97.5000  80.5000   C.3       1 RES1  21.5880
  1127 21.59  103.5000  97.5000  81.0000   C.3       1 RES1  21.5880
  1128 21.59  103.5000  98.0000  80.0000   C.3       1 RES1  21.5880
  1129 21.59  103.5000  98.0000  80.5000   C.3       1 RES1  21.5880
  1130 21.59  103.5000  98.0000  81.0000   C.3       1 RES1  21.5880
  1131 20.21  101.0000 104.5000  76.5000   C.3       1 RES1  20.2060
  1132 20.21  101.0000 104.5000  77.0000   C.3       1 RES1  20.2060
  1133 20.21  101.0000 104.5000  77.5000   C.3       1 RES1  20.2060
  1134 20.21  101.5000 104.5000  76.5000   C.3       1 RES1  20.2060
  1135 20.21  101.5000 104.5000  77.0000   C.3       1 RES1  20.2060
  1136 20.21  101.5000 104.5000  77.5000   C.3       1 RES1  20.2060
  1137 20.21  102.0000 104.5000  76.5000   C.3       1 RES1  20.2060
  1138 20.21  102.0000 104.5000  77.0000   C.3       1 RES1  20.2060
  1139 20.21  102.0000 104.5000  77.5000   C.3       1 RES1  20.2060
  1140 25.88  104.5000 101.5000  83.0000   C.3       1 RES1  25.8750
  1141 25.88  105.0000 101.5000  83.0000   C.3       1 RES1  25.8750
  1142 25.88  105.5000 101.5000  83.0000   C.3       1 RES1  25.8750
  1143 21.13   96.5000  99.5000  78.5000   C.3       1 RES1  21.1340
  1144 21.13   96.5000  99.5000  79.0000   C.3       1 RES1  21.1340
  1145 21.13   96.5000  99.5000  79.5000   C.3       1 RES1  21.1340
  1146 21.13   96.5000 100.0000  78.5000   C.3       1 RES1  21.1340
  1147 21.13   96.5000 100.0000  79.0000   C.3       1 RES1  21.1340
  1148 21.13   96.5000 100.0000  79.5000   C.3       1 RES1  21.1340
  1149 21.13   96.5000 100.5000  78.5000   C.3       1 RES1  21.1340
  1150 21.13   96.5000 100.5000  79.0000   C.3       1 RES1  21.1340
  1151 21.13   96.5000 100.5000  79.5000   C.3       1 RES1  21.1340
  1152 21.13   97.0000  99.5000  78.5000   C.3       1 RES1  21.1340
  1153 21.13   97.0000  99.5000  79.0000   C.3       1 RES1  21.1340
  1154 21.13   97.0000  99.5000  79.5000   C.3       1 RES1  21.1340
  1155 21.13   97.0000 100.0000  78.5000   C.3       1 RES1  21.1340
  1156 21.13   97.0000 100.0000  79.0000   C.3       1 RES1  21.1340
  1157 21.13   97.0000 100.0000  79.5000   C.3       1 RES1  21.1340
  1158 21.13   97.0000 100.5000  78.5000   C.3       1 RES1  21.1340
  1159 21.13   97.0000 100.5000  79.0000   C.3       1 RES1  21.1340
  1160 21.13   97.0000 100.5000  79.5000   C.3       1 RES1  21.1340
  1161 21.13   97.5000  99.5000  78.5000   C.3       1 RES1  21.1340
  1162 21.13   97.5000  99.5000  79.0000   C.3       1 RES1  21.1340
  1163 21.13   97.5000  99.5000  79.5000   C.3       1 RES1  21.1340
  1164 21.13   97.5000 100.0000  79.5000   C.3       1 RES1  21.1340
  1165 21.13   97.5000 100.5000  79.5000   C.3       1 RES1  21.1340
  1166 23.16  104.5000  99.0000  82.0000   C.3       1 RES1  23.1620
  1167 20.81  104.5000 100.5000  78.0000   C.3       1 RES1  20.8060
  1168 20.81  104.5000 100.5000  78.5000   C.3       1 RES1  20.8060
  1169 30.37  104.0000 101.5000  79.5000   C.3       1 RES1  30.3660
  1170 25.80  103.0000 100.5000  82.5000   C.3       1 RES1  25.8010
  1171 25.80  103.0000 101.0000  82.5000   C.3       1 RES1  25.8010
  1172 25.80  103.0000 101.5000  82.5000   C.3       1 RES1  25.8010
  1173 20.45  101.0000  97.0000  81.0000   C.3       1 RES1  20.4460
  1174 20.45  101.0000  97.5000  81.0000   C.3       1 RES1  20.4460
  1175 20.45  101.0000  98.0000  81.0000   C.3       1 RES1  20.4460
  1176 20.53   98.5000  98.0000  83.0000   C.3       1 RES1  20.5260
  1177 20.53   98.5000  98.5000  83.0000   C.3       1 RES1  20.5260
  1178 20.53   98.5000  99.0000  82.0000   C.3       1 RES1  20.5260
  1179 20.53   98.5000  99.0000  82.5000   C.3       1 RES1  20.5260
  1180 20.53   98.5000  99.0000  83.0000   C.3       1 RES1  20.5260
  1181 21.10  103.0000  99.0000  79.5000   C.3       1 RES1  21.0980
  1182 22.57  102.5000  99.0000  80.0000   C.3       1 RES1  22.5700
  1183 22.57  103.0000  99.0000  80.0000   C.3       1 RES1  22.5700
  1184 22.57  103.5000  99.0000  80.0000   C.3       1 RES1  22.5700
  1185 26.09  104.0000 101.5000  78.5000   C.3       1 RES1  26.0930
  1186 25.46  102.5000  99.0000  80.5000   C.3       1 RES1  25.4590
  1187 25.46  102.5000  99.0000  81.0000   C.3       1 RES1  25.4590
  1188 25.46  102.5000  99.0000  81.5000   C.3       1 RES1  25.4590
  1189 25.46  103.0000  99.0000  80.5000   C.3       1 RES1  25.4590
  1190 25.46  103.0000  99.0000  81.0000   C.3       1 RES1  25.4590
  1191 25.46  103.0000  99.0000  81.5000   C.3       1 RES1  25.4590
  1192 25.46  103.5000  99.0000  80.5000   C.3       1 RES1  25.4590
  1193 25.46  103.5000  99.0000  81.0000   C.3       1 RES1  25.4590
  1194 25.46  103.5000  99.0000  81.5000   C.3       1 RES1  25.4590
  1195 20.59  100.0000 100.0000  81.5000   C.3       1 RES1  20.5930
  1196 20.59  100.0000 100.5000  81.5000   C.3       1 RES1  20.5930
  1197 20.59  100.0000 101.0000  81.5000   C.3       1 RES1  20.5930
  1198 25.76  102.5000  99.5000  80.5000   C.3       1 RES1  25.7650
  1199 25.76  102.5000  99.5000  81.0000   C.3       1 RES1  25.7650
  1200 25.76  102.5000  99.5000  81.5000   C.3       1 RES1  25.7650
  1201 25.76  102.5000 100.0000  80.5000   C.3       1 RES1  25.7650
  1202 25.76  102.5000 100.0000  81.0000   C.3       1 RES1  25.7650
  1203 25.76  102.5000 100.0000  81.5000   C.3       1 RES1  25.7650
  1204 21.03  106.5000 102.5000  81.5000   C.3       1 RES1  21.0330
  1205 28.77  105.0000 100.0000  81.0000   C.3       1 RES1  28.7730
  1206 28.77  105.0000 100.5000  81.0000   C.3       1 RES1  28.7730
  1207 28.77  105.0000 101.0000  81.0000   C.3       1 RES1  28.7730
  1208 28.77  105.5000 100.0000  81.0000   C.3       1 RES1  28.7730
  1209 28.77  105.5000 100.5000  81.0000   C.3       1 RES1  28.7730
  1210 28.77  105.5000 101.0000  81.0000   C.3       1 RES1  28.7730
  1211 26.27  104.0000 100.0000  83.0000   C.3       1 RES1  26.2740
  1212 26.27  104.0000 100.5000  83.0000   C.3       1 RES1  26.2740
  1213 26.27  104.0000 101.0000  83.0000   C.3       1 RES1  26.2740
  1214 23.14  102.5000 102.0000  76.5000   C.3       1 RES1  23.1350
  1215 23.14  102.5000 102.5000  76.5000   C.3       1 RES1  23.1350
  1216 23.14  102.5000 103.0000  76.5000   C.3       1 RES1  23.1350
  1217 23.39  104.5000  99.0000  80.5000   C.3       1 RES1  23.3900
  1218 23.39  104.5000  99.0000  81.0000   C.3       1 RES1  23.3900
  1219 23.39  104.5000  99.0000  81.5000   C.3       1 RES1  23.3900
  1220 20.71   96.0000  92.0000  82.0000   C.3       1 RES1  20.7140
  1221 20.71   96.0000  92.0000  82.5000   C.3       1 RES1  20.7140
  1222 20.71   96.0000  92.0000  83.0000   C.3       1 RES1  20.7140
  1223 20.71   96.5000  92.0000  82.0000   C.3       1 RES1  20.7140
  1224 20.71   96.5000  92.0000  82.5000   C.3       1 RES1  20.7140
  1225 20.71   96.5000  92.0000  83.0000   C.3       1 RES1  20.7140
  1226 20.55  102.0000 103.5000  80.0000   C.3       1 RES1  20.5480
  1227 22.73  102.5000 100.5000  78.5000   C.3       1 RES1  22.7250
  1228 22.73  103.0000 100.5000  78.5000   C.3       1 RES1  22.7250
  1229 22.73  103.5000 100.5000  78.5000   C.3       1 RES1  22.7250
  1230 28.93  103.5000 100.0000  81.0000   C.3       1 RES1  28.9270
  1231 28.93  103.5000 100.0000  81.5000   C.3       1 RES1  28.9270
  1232 28.93  103.5000 100.0000  82.0000   C.3       1 RES1  28.9270
  1233 28.93  104.0000 100.0000  81.0000   C.3       1 RES1  28.9270
  1234 28.93  104.5000 100.0000  81.0000   C.3       1 RES1  28.9270
  1235 22.40  106.0000 100.0000  80.5000   C.3       1 RES1  22.3990
  1236 21.70  103.5000  98.5000  82.0000   C.3       1 RES1  21.7050
  1237 21.70  104.0000  98.5000  82.0000   C.3       1 RES1  21.7050
  1238 21.70  104.5000  98.5000  82.0000   C.3       1 RES1  21.7050
  1239 20.20   98.5000  99.5000  77.5000   C.3       1 RES1  20.1960
  1240 20.20   99.0000  99.5000  77.5000   C.3       1 RES1  20.1960
  1241 20.20   99.5000  99.5000  77.5000   C.3       1 RES1  20.1960
  1242 29.30  102.5000 100.5000  80.5000   C.3       1 RES1  29.2970
  1243 29.30  102.5000 100.5000  81.0000   C.3       1 RES1  29.2970
  1244 29.30  102.5000 100.5000  81.5000   C.3       1 RES1  29.2970
  1245 29.30  103.0000 100.5000  80.5000   C.3       1 RES1  29.2970
  1246 29.30  103.0000 100.5000  81.0000   C.3       1 RES1  29.2970
  1247 29.30  103.0000 100.5000  81.5000   C.3       1 RES1  29.2970
  1248 29.30  103.5000 100.5000  80.5000   C.3       1 RES1  29.2970
  1249 29.30  103.5000 100.5000  81.0000   C.3       1 RES1  29.2970
  1250 29.30  103.5000 100.5000  81.5000   C.3       1 RES1  29.2970
  1251 21.56  100.0000 102.5000  77.5000   C.3       1 RES1  21.5590
  1252 21.56  100.0000 102.5000  78.0000   C.3       1 RES1  21.5590
  1253 20.42   96.0000  99.0000  80.0000   C.3       1 RES1  20.4220
  1254 20.42   96.0000  99.0000  80.5000   C.3       1 RES1  20.4220
  1255 20.42   96.0000  99.0000  81.0000   C.3       1 RES1  20.4220
  1256 20.42   96.0000  99.5000  80.0000   C.3       1 RES1  20.4220
  1257 20.42   96.0000  99.5000  80.5000   C.3       1 RES1  20.4220
  1258 20.42   96.0000  99.5000  81.0000   C.3       1 RES1  20.4220
  1259 20.42   96.0000 100.0000  80.0000   C.3       1 RES1  20.4220
  1260 20.42   96.0000 100.0000  80.5000   C.3       1 RES1  20.4220
  1261 20.42   96.0000 100.0000  81.0000   C.3       1 RES1  20.4220
  1262 20.42   96.5000  99.0000  80.0000   C.3       1 RES1  20.4220
  1263 20.42   96.5000  99.0000  80.5000   C.3       1 RES1  20.4220
  1264 20.42   96.5000  99.5000  80.5000   C.3       1 RES1  20.4220
  1265 20.42   96.5000 100.0000  80.5000   C.3       1 RES1  20.4220
  1266 20.42   96.5000 100.0000  81.0000   C.3       1 RES1  20.4220
  1267 20.42   97.0000  99.0000  80.0000   C.3       1 RES1  20.4220
  1268 20.42   97.0000  99.0000  80.5000   C.3       1 RES1  20.4220
  1269 20.42   97.0000  99.5000  80.5000   C.3       1 RES1  20.4220
  1270 20.42   97.0000 100.0000  80.5000   C.3       1 RES1  20.4220
  1271 20.42   97.0000 100.0000  81.0000   C.3       1 RES1  20.4220
  1272 21.09  103.0000 102.0000  76.0000   C.3       1 RES1  21.0940
  1273 21.09  103.0000 102.0000  76.5000   C.3       1 RES1  21.0940
  1274 23.66  102.5000 101.0000  82.5000   C.3       1 RES1  23.6640
  1275 23.66  102.5000 101.5000  82.5000   C.3       1 RES1  23.6640
  1276 23.66  102.5000 102.0000  82.5000   C.3       1 RES1  23.6640
  1277 21.27  101.0000 100.0000  81.5000   C.3       1 RES1  21.2700
  1278 41.78   96.5000  96.0000  79.5000   C.3       1 RES1  41.7800
  1279 41.78   96.5000  96.0000  80.0000   C.3       1 RES1  41.7800
  1280 41.78   96.5000  96.0000  80.5000   C.3       1 RES1  41.7800
  1281 41.78   96.5000  96.5000  79.5000   C.3       1 RES1  41.7800
  1282 41.78   96.5000  96.5000  80.0000   C.3       1 RES1  41.7800
  1283 41.78   96.5000  96.5000  80.5000   C.3       1 RES1  41.7800
  1284 41.78   96.5000  97.0000  79.5000   C.3       1 RES1  41.7800
  1285 41.78   96.5000  97.0000  80.0000   C.3       1 RES1  41.7800
  1286 41.78   96.5000  97.0000  80.5000   C.3       1 RES1  41.7800
  1287 41.78   97.0000  96.0000  79.5000   C.3       1 RES1  41.7800
  1288 41.78   97.0000  96.0000  80.0000   C.3       1 RES1  41.7800
  1289 41.78   97.0000  96.0000  80.5000   C.3       1 RES1  41.7800
  1290 41.78   97.0000  96.5000  79.5000   C.3       1 RES1  41.7800
  1291 41.78   97.0000  96.5000  80.0000   C.3       1 RES1  41.7800
  1292 41.78   97.0000  96.5000  80.5000   C.3       1 RES1  41.7800
  1293 41.78   97.0000  97.0000  79.5000   C.3       1 RES1  41.7800
  1294 41.78   97.0000  97.0000  80.0000   C.3       1 RES1  41.7800
  1295 41.78   97.0000  97.0000  80.5000   C.3       1 RES1  41.7800
  1296 41.78   97.5000  96.0000  79.5000   C.3       1 RES1  41.7800
  1297 41.78   97.5000  96.0000  80.0000   C.3       1 RES1  41.7800
  1298 41.78   97.5000  96.0000  80.5000   C.3       1 RES1  41.7800
  1299 41.78   97.5000  96.5000  79.5000   C.3       1 RES1  41.7800
  1300 41.78   97.5000  96.5000  80.0000   C.3       1 RES1  41.7800
  1301 41.78   97.5000  96.5000  80.5000   C.3       1 RES1  41.7800
  1302 41.78   97.5000  97.0000  79.5000   C.3       1 RES1  41.7800
  1303 41.78   97.5000  97.0000  80.0000   C.3       1 RES1  41.7800
  1304 41.78   97.5000  97.0000  80.5000   C.3       1 RES1  41.7800
  1305 23.24  101.5000 103.0000  79.0000   C.3       1 RES1  23.2440
  1306 22.76   98.5000 100.0000  77.5000   C.3       1 RES1  22.7610
  1307 22.76   98.5000 100.0000  78.0000   C.3       1 RES1  22.7610
  1308 22.76   98.5000 100.0000  78.5000   C.3       1 RES1  22.7610
  1309 22.76   98.5000 100.5000  77.5000   C.3       1 RES1  22.7610
  1310 22.76   98.5000 100.5000  78.0000   C.3       1 RES1  22.7610
  1311 22.76   98.5000 100.5000  78.5000   C.3       1 RES1  22.7610
  1312 22.76   98.5000 101.0000  77.5000   C.3       1 RES1  22.7610
  1313 22.76   98.5000 101.0000  78.0000   C.3       1 RES1  22.7610
  1314 22.76   98.5000 101.0000  78.5000   C.3       1 RES1  22.7610
  1315 22.76   99.0000 100.0000  77.5000   C.3       1 RES1  22.7610
  1316 22.76   99.0000 100.0000  78.0000   C.3       1 RES1  22.7610
  1317 22.76   99.0000 100.0000  78.5000   C.3       1 RES1  22.7610
  1318 22.76   99.0000 100.5000  77.5000   C.3       1 RES1  22.7610
  1319 22.76   99.0000 100.5000  78.0000   C.3       1 RES1  22.7610
  1320 22.76   99.0000 100.5000  78.5000   C.3       1 RES1  22.7610
  1321 22.76   99.0000 101.0000  77.5000   C.3       1 RES1  22.7610
  1322 22.76   99.0000 101.0000  78.0000   C.3       1 RES1  22.7610
  1323 22.76   99.0000 101.0000  78.5000   C.3       1 RES1  22.7610
  1324 22.76   99.5000 100.0000  77.5000   C.3       1 RES1  22.7610
  1325 22.76   99.5000 100.0000  78.0000   C.3       1 RES1  22.7610
  1326 22.76   99.5000 100.0000  78.5000   C.3       1 RES1  22.7610
  1327 25.58  103.0000  99.5000  82.0000   C.3       1 RES1  25.5810
  1328 25.34  102.0000 103.0000  80.5000   C.3       1 RES1  25.3390
  1329 25.34  102.0000 103.0000  81.0000   C.3       1 RES1  25.3390
  1330 41.43   96.0000  92.5000  82.0000   C.3       1 RES1  41.4280
  1331 41.43   96.0000  92.5000  82.5000   C.3       1 RES1  41.4280
  1332 41.43   96.0000  92.5000  83.0000   C.3       1 RES1  41.4280
  1333 41.43   96.0000  93.0000  82.0000   C.3       1 RES1  41.4280
  1334 41.43   96.0000  93.0000  82.5000   C.3       1 RES1  41.4280
  1335 41.43   96.0000  93.0000  83.0000   C.3       1 RES1  41.4280
  1336 41.43   96.5000  92.5000  82.0000   C.3       1 RES1  41.4280
  1337 41.43   96.5000  92.5000  82.5000   C.3       1 RES1  41.4280
  1338 41.43   96.5000  92.5000  83.0000   C.3       1 RES1  41.4280
  1339 41.43   96.5000  93.0000  82.0000   C.3       1 RES1  41.4280
  1340 41.43   96.5000  93.0000  82.5000   C.3       1 RES1  41.4280
  1341 41.43   96.5000  93.0000  83.0000   C.3       1 RES1  41.4280
  1342 20.16   99.0000  94.5000  81.0000   C.3       1 RES1  20.1620
  1343 20.16   99.0000  94.5000  81.5000   C.3       1 RES1  20.1620
  1344 20.16   99.0000  94.5000  82.0000   C.3       1 RES1  20.1620
  1345 20.16   99.5000  94.5000  81.0000   C.3       1 RES1  20.1620
  1346 20.16   99.5000  94.5000  81.5000   C.3       1 RES1  20.1620
  1347 20.16   99.5000  94.5000  82.0000   C.3       1 RES1  20.1620
  1348 20.16  100.0000  94.5000  81.0000   C.3       1 RES1  20.1620
  1349 20.16  100.0000  94.5000  81.5000   C.3       1 RES1  20.1620
  1350 20.16  100.0000  94.5000  82.0000   C.3       1 RES1  20.1620
  1351 28.82  102.5000 101.0000  79.5000   C.3       1 RES1  28.8240
  1352 28.82  103.0000 101.0000  79.5000   C.3       1 RES1  28.8240
  1353 28.82  103.5000 101.0000  79.5000   C.3       1 RES1  28.8240
  1354 21.39  103.0000  98.5000  82.0000   C.3       1 RES1  21.3860
  1355 25.99  105.0000 100.5000  80.5000   C.3       1 RES1  25.9930
  1356 25.99  105.0000 101.0000  80.5000   C.3       1 RES1  25.9930
  1357 22.70  101.0000 100.5000  80.5000   C.3       1 RES1  22.7010
  1358 22.70  101.0000 100.5000  81.0000   C.3       1 RES1  22.7010
  1359 22.70  101.0000 100.5000  81.5000   C.3       1 RES1  22.7010
  1360 22.70  101.0000 101.0000  80.5000   C.3       1 RES1  22.7010
  1361 22.70  101.0000 101.0000  81.0000   C.3       1 RES1  22.7010
  1362 22.70  101.0000 101.0000  81.5000   C.3       1 RES1  22.7010
  1363 22.70  101.0000 101.5000  80.5000   C.3       1 RES1  22.7010
  1364 22.70  101.0000 101.5000  81.0000   C.3       1 RES1  22.7010
  1365 22.70  101.0000 101.5000  81.5000   C.3       1 RES1  22.7010
  1366 22.63  100.5000 103.0000  77.5000   C.3       1 RES1  22.6310
  1367 24.94  102.0000 101.5000  78.0000   C.3       1 RES1  24.9420
  1368 21.18  104.0000  99.0000  82.5000   C.3       1 RES1  21.1780
  1369 21.18  104.5000  99.0000  82.5000   C.3       1 RES1  21.1780
  1370 21.18  105.0000  99.0000  82.5000   C.3       1 RES1  21.1780
  1371 20.73  102.0000  97.5000  80.5000   C.3       1 RES1  20.7330
  1372 20.73  102.0000  97.5000  81.0000   C.3       1 RES1  20.7330
  1373 20.73  102.0000  98.0000  80.5000   C.3       1 RES1  20.7330
  1374 20.73  102.0000  98.0000  81.0000   C.3       1 RES1  20.7330
  1375 25.27  104.5000 103.0000  81.5000   C.3       1 RES1  25.2660
  1376 22.42  102.5000 103.5000  82.0000   C.3       1 RES1  22.4230
  1377 22.42  103.0000 103.5000  82.0000   C.3       1 RES1  22.4230
  1378 22.42  103.5000 103.5000  82.0000   C.3       1 RES1  22.4230
  1379 28.23  104.5000 101.0000  80.5000   C.3       1 RES1  28.2310
  1380 28.23  104.5000 102.0000  81.0000   C.3       1 RES1  28.2310
  1381 28.23  104.5000 102.0000  81.5000   C.3       1 RES1  28.2310
  1382 20.76  103.0000 104.0000  81.5000   C.3       1 RES1  20.7570
  1383 20.76  103.5000 104.0000  81.5000   C.3       1 RES1  20.7570
  1384 20.76  104.0000 104.0000  81.5000   C.3       1 RES1  20.7570
  1385 21.00  101.0000 104.0000  76.5000   C.3       1 RES1  20.9980
  1386 21.00  101.0000 104.0000  77.0000   C.3       1 RES1  20.9980
  1387 21.00  101.0000 104.0000  77.5000   C.3       1 RES1  20.9980
  1388 21.00  101.5000 104.0000  76.5000   C.3       1 RES1  20.9980
  1389 21.00  102.0000 104.0000  76.5000   C.3       1 RES1  20.9980
  1390 28.39  102.5000 101.5000  78.5000   C.3       1 RES1  28.3910
  1391 28.39  103.0000 101.5000  78.5000   C.3       1 RES1  28.3910
  1392 28.39  103.5000 101.5000  78.5000   C.3       1 RES1  28.3910
  1393 21.22  100.5000 100.0000  78.5000   C.3       1 RES1  21.2150
  1394 31.26  104.0000 101.5000  80.0000   C.3       1 RES1  31.2620
  1395 31.26  104.0000 102.0000  80.0000   C.3       1 RES1  31.2620
  1396 31.26  104.0000 102.5000  80.0000   C.3       1 RES1  31.2620
  1397 20.88  102.0000 100.5000  82.5000   C.3       1 RES1  20.8820
  1398 20.88  102.0000 101.0000  82.5000   C.3       1 RES1  20.8820
  1399 20.88  102.0000 101.5000  82.5000   C.3       1 RES1  20.8820
  1400 24.05  101.5000 100.5000  80.0000   C.3       1 RES1  24.0510
  1401 24.05  101.5000 101.0000  80.0000   C.3       1 RES1  24.0510
  1402 24.05  101.5000 101.5000  80.0000   C.3       1 RES1  24.0510
  1403 20.26   99.0000  92.5000  81.0000   C.3       1 RES1  20.2570
  1404 20.26   99.0000  92.5000  81.5000   C.3       1 RES1  20.2570
  1405 20.26   99.5000  92.5000  81.0000   C.3       1 RES1  20.2570
  1406 20.26   99.5000  92.5000  81.5000   C.3       1 RES1  20.2570
  1407 20.26  100.0000  92.5000  81.0000   C.3       1 RES1  20.2570
  1408 20.26  100.0000  92.5000  81.5000   C.3       1 RES1  20.2570
  1409 22.63  101.0000 100.0000  78.5000   C.3       1 RES1  22.6280
  1410 22.63  101.5000 100.0000  78.5000   C.3       1 RES1  22.6280
  1411 22.63  102.0000 100.0000  77.5000   C.3       1 RES1  22.6280
  1412 22.63  102.0000 100.0000  78.0000   C.3       1 RES1  22.6280
  1413 22.63  102.0000 100.0000  78.5000   C.3       1 RES1  22.6280
  1414 27.13  104.0000  99.5000  81.5000   C.3       1 RES1  27.1270
  1415 27.13  104.0000  99.5000  82.0000   C.3       1 RES1  27.1270
  1416 27.13  104.0000  99.5000  82.5000   C.3       1 RES1  27.1270
  1417 20.45   97.0000  99.5000  78.0000   C.3       1 RES1  20.4530
  1418 22.24  100.0000 102.0000  77.0000   C.3       1 RES1  22.2440
  1419 22.24  100.0000 102.0000  77.5000   C.3       1 RES1  22.2440
  1420 22.24  100.0000 102.0000  78.0000   C.3       1 RES1  22.2440
  1421 24.42  103.5000  99.5000  82.5000   C.3       1 RES1  24.4240
  1422 21.70  106.0000 101.5000  83.0000   C.3       1 RES1  21.7020
  1423 24.82  106.0000 101.5000  82.5000   C.3       1 RES1  24.8180
  1424 22.17  101.5000 101.0000  79.5000   C.3       1 RES1  22.1690
  1425 22.31  101.0000 103.5000  78.0000   C.3       1 RES1  22.3090
  1426 20.47  103.5000 100.5000  76.0000   C.3       1 RES1  20.4660
  1427 20.47  103.5000 101.0000  76.0000   C.3       1 RES1  20.4660
  1428 20.47  103.5000 101.5000  76.0000   C.3       1 RES1  20.4660
  1429 23.24  105.5000 100.0000  80.5000   C.3       1 RES1  23.2430
  1430 21.04  103.0000  99.5000  82.5000   C.3       1 RES1  21.0390
  1431 25.70  104.0000 101.5000  83.0000   C.3       1 RES1  25.7000
  1432 27.45  106.0000 100.0000  81.5000   C.3       1 RES1  27.4490
  1433 27.45  106.0000 100.0000  82.0000   C.3       1 RES1  27.4490
  1434 27.45  106.0000 100.0000  82.5000   C.3       1 RES1  27.4490
  1435 27.45  106.0000 100.5000  81.5000   C.3       1 RES1  27.4490
  1436 27.45  106.0000 100.5000  82.0000   C.3       1 RES1  27.4490
  1437 27.45  106.0000 100.5000  82.5000   C.3       1 RES1  27.4490
  1438 27.45  106.0000 101.0000  81.5000   C.3       1 RES1  27.4490
  1439 27.45  106.0000 101.0000  82.0000   C.3       1 RES1  27.4490
  1440 27.45  106.0000 101.0000  82.5000   C.3       1 RES1  27.4490
  1441 22.17   99.5000 102.0000  77.0000   C.3       1 RES1  22.1750
  1442 22.17   99.5000 102.0000  77.5000   C.3       1 RES1  22.1750
  1443 22.17   99.5000 102.0000  78.0000   C.3       1 RES1  22.1750
  1444 20.94   98.0000  99.5000  81.5000   C.3       1 RES1  20.9400
  1445 20.13  100.5000 102.0000  79.0000   C.3       1 RES1  20.1300
  1446 25.62  103.0000 103.5000  81.5000   C.3       1 RES1  25.6220
  1447 25.62  103.5000 103.5000  81.5000   C.3       1 RES1  25.6220
  1448 25.62  104.0000 103.5000  81.5000   C.3       1 RES1  25.6220
  1449 20.96  104.0000 100.0000  79.5000   C.3       1 RES1  20.9610
  1450 23.02  102.5000  98.5000  78.0000   C.3       1 RES1  23.0220
  1451 23.02  102.5000  98.5000  78.5000   C.3       1 RES1  23.0220
  1452 23.02  102.5000  98.5000  79.0000   C.3       1 RES1  23.0220
  1453 23.02  102.5000  99.0000  78.0000   C.3       1 RES1  23.0220
  1454 23.02  102.5000  99.0000  78.5000   C.3       1 RES1  23.0220
  1455 23.02  102.5000  99.0000  79.0000   C.3       1 RES1  23.0220
  1456 23.02  102.5000  99.5000  78.0000   C.3       1 RES1  23.0220
  1457 23.02  102.5000  99.5000  78.5000   C.3       1 RES1  23.0220
  1458 23.02  102.5000  99.5000  79.0000   C.3       1 RES1  23.0220
  1459 23.02  104.5000 100.5000  80.0000   C.3       1 RES1  23.0220
  1460 24.25  103.0000  99.0000  82.0000   C.3       1 RES1  24.2490
  1461 24.25  103.5000  99.0000  82.0000   C.3       1 RES1  24.2490
  1462 24.25  104.0000  99.0000  82.0000   C.3       1 RES1  24.2490
  1463 21.01   96.5000  98.0000  83.0000   C.3       1 RES1  21.0080
  1464 21.01   96.5000  98.5000  83.0000   C.3       1 RES1  21.0080
  1465 21.01   96.5000  99.0000  83.0000   C.3       1 RES1  21.0080
  1466 28.94  104.0000 101.5000  82.5000   C.3       1 RES1  28.9400
  1467 28.94  104.5000 101.5000  82.5000   C.3       1 RES1  28.9400
  1468 28.94  105.0000 101.5000  81.5000   C.3       1 RES1  28.9400
  1469 28.94  105.0000 101.5000  82.0000   C.3       1 RES1  28.9400
  1470 28.94  105.0000 101.5000  82.5000   C.3       1 RES1  28.9400
  1471 21.61  103.0000 104.0000  80.0000   C.3       1 RES1  21.6150
  1472 21.61  103.0000 104.0000  80.5000   C.3       1 RES1  21.6150
  1473 21.61  103.0000 104.0000  81.0000   C.3       1 RES1  21.6150
  1474 21.61  103.5000 104.0000  80.0000   C.3       1 RES1  21.6150
  1475 21.61  103.5000 104.0000  80.5000   C.3       1 RES1  21.6150
  1476 21.61  103.5000 104.0000  81.0000   C.3       1 RES1  21.6150
  1477 21.61  104.0000 104.0000  80.0000   C.3       1 RES1  21.6150
  1478 21.61  104.0000 104.0000  80.5000   C.3       1 RES1  21.6150
  1479 21.61  104.0000 104.0000  81.0000   C.3       1 RES1  21.6150
  1480 21.09  102.5000  98.5000  80.0000   C.3       1 RES1  21.0910
  1481 21.09  103.0000  98.5000  80.0000   C.3       1 RES1  21.0910
  1482 31.50  102.5000 101.5000  80.0000   C.3       1 RES1  31.5030
  1483 31.50  102.5000 102.0000  80.0000   C.3       1 RES1  31.5030
  1484 31.50  102.5000 102.5000  80.0000   C.3       1 RES1  31.5030
  1485 31.50  102.5000 102.5000  80.5000   C.3       1 RES1  31.5030
  1486 31.50  102.5000 102.5000  81.0000   C.3       1 RES1  31.5030
  1487 31.50  103.0000 101.5000  80.0000   C.3       1 RES1  31.5030
  1488 31.50  103.0000 102.0000  80.0000   C.3       1 RES1  31.5030
  1489 31.50  103.0000 102.5000  80.0000   C.3       1 RES1  31.5030
  1490 31.50  103.5000 101.5000  80.0000   C.3       1 RES1  31.5030
  1491 31.50  103.5000 102.0000  80.0000   C.3       1 RES1  31.5030
  1492 31.50  103.5000 102.5000  80.0000   C.3       1 RES1  31.5030
  1493 22.10  105.0000  99.5000  80.5000   C.3       1 RES1  22.1000
  1494 20.42   98.0000  99.5000  80.0000   C.3       1 RES1  20.4250
  1495 20.42   98.0000 100.0000  80.0000   C.3       1 RES1  20.4250
  1496 20.42   98.0000 100.5000  80.0000   C.3       1 RES1  20.4250
  1497 31.43  102.5000 102.5000  81.5000   C.3       1 RES1  31.4310
  1498 29.01  103.0000 102.5000  82.0000   C.3       1 RES1  29.0110
  1499 29.01  103.5000 102.5000  82.0000   C.3       1 RES1  29.0110
  1500 29.01  104.0000 102.5000  82.0000   C.3       1 RES1  29.0110
  1501 24.18  105.0000 102.0000  82.0000   C.3       1 RES1  24.1800
  1502 24.34  106.0000 100.0000  83.0000   C.3       1 RES1  24.3420
  1503 24.34  106.0000 100.5000  83.0000   C.3       1 RES1  24.3420
  1504 24.34  106.0000 101.0000  83.0000   C.3       1 RES1  24.3420
  1505 30.17  103.0000 103.0000  81.5000   C.3       1 RES1  30.1700
  1506 30.17  103.5000 103.0000  81.5000   C.3       1 RES1  30.1700
  1507 30.17  104.0000 103.0000  81.5000   C.3       1 RES1  30.1700
  1508 25.72  103.0000 102.0000  82.5000   C.3       1 RES1  25.7170
  1509 25.72  103.5000 102.0000  82.5000   C.3       1 RES1  25.7170
  1510 25.72  104.0000 102.0000  82.5000   C.3       1 RES1  25.7170
  1511 25.75  102.5000 103.5000  80.0000   C.3       1 RES1  25.7450
  1512 25.75  102.5000 103.5000  80.5000   C.3       1 RES1  25.7450
  1513 25.75  102.5000 103.5000  81.0000   C.3       1 RES1  25.7450
  1514 22.04  101.0000 102.0000  78.5000   C.3       1 RES1  22.0400
  1515 22.04  101.0000 102.5000  78.5000   C.3       1 RES1  22.0400
  1516 22.04  101.0000 103.0000  78.5000   C.3       1 RES1  22.0400
  1517 21.09  103.5000  99.0000  79.5000   C.3       1 RES1  21.0890
  1518 21.96  102.5000  98.5000  77.5000   C.3       1 RES1  21.9620
  1519 21.17  100.5000 100.5000  79.5000   C.3       1 RES1  21.1690
  1520 21.17  100.5000 101.0000  79.5000   C.3       1 RES1  21.1690
  1521 21.17  100.5000 101.5000  79.5000   C.3       1 RES1  21.1690
  1522 21.17  101.0000 100.5000  79.5000   C.3       1 RES1  21.1690
  1523 21.17  101.0000 101.0000  79.5000   C.3       1 RES1  21.1690
  1524 21.17  101.0000 101.5000  79.5000   C.3       1 RES1  21.1690
  1525 20.85  104.5000 102.5000  82.5000   C.3       1 RES1  20.8520
  1526 27.83  104.5000  99.5000  81.5000   C.3       1 RES1  27.8300
  1527 27.83  104.5000  99.5000  82.0000   C.3       1 RES1  27.8300
  1528 27.83  104.5000  99.5000  82.5000   C.3       1 RES1  27.8300
  1529 27.83  105.0000  99.5000  81.5000   C.3       1 RES1  27.8300
  1530 27.83  105.0000  99.5000  82.0000   C.3       1 RES1  27.8300
  1531 27.83  105.0000  99.5000  82.5000   C.3       1 RES1  27.8300
  1532 27.83  105.5000  99.5000  81.5000   C.3       1 RES1  27.8300
  1533 27.83  105.5000  99.5000  82.0000   C.3       1 RES1  27.8300
  1534 27.83  105.5000  99.5000  82.5000   C.3       1 RES1  27.8300
  1535 26.71  104.0000 101.0000  79.5000   C.3       1 RES1  26.7070
  1536 30.30  102.5000 103.0000  80.0000   C.3       1 RES1  30.3010
  1537 30.30  102.5000 103.0000  80.5000   C.3       1 RES1  30.3010
  1538 30.30  102.5000 103.0000  81.0000   C.3       1 RES1  30.3010
  1539 21.00   99.0000 102.0000  77.0000   C.3       1 RES1  21.0040
  1540 21.00   99.0000 102.0000  77.5000   C.3       1 RES1  21.0040
  1541 21.00   99.0000 102.0000  78.0000   C.3       1 RES1  21.0040
  1542 20.29   98.5000  99.0000  81.5000   C.3       1 RES1  20.2920
  1543 20.96  101.0000 100.5000  82.0000   C.3       1 RES1  20.9570
  1544 20.96  101.0000 101.0000  82.0000   C.3       1 RES1  20.9570
  1545 20.96  101.0000 101.5000  82.0000   C.3       1 RES1  20.9570
  1546 21.15  102.5000 100.0000  82.5000   C.3       1 RES1  21.1510
  1547 22.87  105.0000  99.0000  81.0000   C.3       1 RES1  22.8740
  1548 22.87  105.0000  99.0000  81.5000   C.3       1 RES1  22.8740
  1549 22.87  105.0000  99.0000  82.0000   C.3       1 RES1  22.8740
  1550 21.05  106.0000  99.5000  83.0000   C.3       1 RES1  21.0460
  1551 20.22  100.0000 100.5000  82.0000   C.3       1 RES1  20.2230
  1552 20.22  100.0000 101.0000  82.0000   C.3       1 RES1  20.2230
  1553 20.22  100.5000 100.5000  82.0000   C.3       1 RES1  20.2230
  1554 20.22  100.5000 101.0000  82.0000   C.3       1 RES1  20.2230
  1555 21.42  104.5000 103.0000  82.0000   C.3       1 RES1  21.4160
  1556 41.35   96.0000  92.5000  81.5000   C.3       1 RES1  41.3520
  1557 41.35   96.0000  93.0000  81.5000   C.3       1 RES1  41.3520
  1558 41.35   96.5000  92.5000  81.5000   C.3       1 RES1  41.3520
  1559 41.35   96.5000  93.0000  81.5000   C.3       1 RES1  41.3520
  1560 24.09  102.0000 103.0000  81.5000   C.3       1 RES1  24.0880
  1561 21.85  106.5000 100.5000  82.0000   C.3       1 RES1  21.8500
  1562 21.85  106.5000 101.0000  82.0000   C.3       1 RES1  21.8500
  1563 21.85  106.5000 101.5000  82.0000   C.3       1 RES1  21.8500
  1564 24.92  104.5000  99.5000  80.5000   C.3       1 RES1  24.9220
  1565 22.48  101.0000 103.5000  76.5000   C.3       1 RES1  22.4780
  1566 22.48  101.0000 103.5000  77.0000   C.3       1 RES1  22.4780
  1567 22.48  101.0000 103.5000  77.5000   C.3       1 RES1  22.4780
  1568 22.48  101.5000 103.5000  76.5000   C.3       1 RES1  22.4780
  1569 22.48  102.0000 103.5000  76.5000   C.3       1 RES1  22.4780
  1570 30.16  104.0000 101.5000  82.0000   C.3       1 RES1  30.1570
  1571 30.16  104.0000 102.0000  82.0000   C.3       1 RES1  30.1570
  1572 20.96   99.0000  99.5000  78.0000   C.3       1 RES1  20.9580
  1573 20.96   99.0000  99.5000  78.5000   C.3       1 RES1  20.9580
  1574 20.96   99.0000  99.5000  79.0000   C.3       1 RES1  20.9580
  1575 20.50  100.0000  98.5000  82.0000   C.3       1 RES1  20.5050
  1576 20.50  100.0000  98.5000  82.5000   C.3       1 RES1  20.5050
  1577 20.50  100.0000  98.5000  83.0000   C.3       1 RES1  20.5050
  1578 20.50  102.5000  98.0000  81.5000   C.3       1 RES1  20.5050
  1579 26.35  104.5000 103.0000  81.0000   C.3       1 RES1  26.3510
  1580 20.87  100.5000  99.0000  81.5000   C.3       1 RES1  20.8690
  1581 20.87  100.5000  99.5000  81.5000   C.3       1 RES1  20.8690
  1582 20.87  100.5000 100.0000  81.5000   C.3       1 RES1  20.8690
  1583 20.87  101.0000  99.0000  81.5000   C.3       1 RES1  20.8690
  1584 20.87  101.0000  99.5000  81.5000   C.3       1 RES1  20.8690
@<TRIPOS>SUBSTRUCTURE
     1 RES1        1 GROUP             0 ****  ****    0  
