@<TRIPOS>MOLECULE
16.9334467218
    70    72     1     0     0
SMALL
USER_CHARGES
****
Generated from the CSD

@<TRIPOS>ATOM
     1 C      104.2868 102.0990  78.5757   C.ar      1 RES1  31.1390
     2 N      105.4876 102.3661  79.1388   N.ar      1 RES1  26.6380
     3 C      105.8086 101.9128  80.3689   C.ar      1 RES1  30.7470
     4 C      104.8472 101.1618  81.0395   C.ar      1 RES1  32.3700
     5 C      103.6224 100.9086  80.4424   C.ar      1 RES1  32.3700
     6 N      103.3470 101.3652  79.2092   N.ar      1 RES1  31.5030
     7 N      102.9069 100.1848  81.3214   N.ar      1 RES1  31.9470
     8 C      103.6545  99.9642  82.4228   C.ar      1 RES1  31.9470
     9 N      104.8456 100.5739  82.2498   N.ar      1 RES1  32.3700
    10 C      101.6426  99.7183  81.1048   C.3       1 RES1  29.2970
    11 C      101.5211  98.8092  79.8584   C.3       1 RES1  25.7650
    12 C      100.7087  97.5959  80.3574   C.3       1 RES1  21.8730
    13 C      100.1168  98.1041  81.6860   C.3       1 RES1  21.3640
    14 O      101.2095  98.8807  82.1827   O.3       1 RES1  24.3780
    15 C       99.7412  96.9615  82.6533   C.3       1 RES1  20.9800
    16 O      100.4882  95.7750  82.3584   O.3       1 RES1  16.8830
    17 P      100.1381  94.3339  82.9615   P.3       1 RES1  21.8640
    18 O       99.7616  93.4145  81.8511   O.2       1 RES1  21.8640
    19 O      101.4174  93.7401  83.7168   O.3       1 RES1  19.0700
    20 O       98.9057  94.4602  83.9741   O.3       1 RES1  24.3270
    21 P       97.5586  94.8968  83.2285   P.3       1 RES1  20.6200
    22 O       97.8085  95.1136  81.7756   O.2       1 RES1  21.8640
    23 O       97.0154  96.2558  83.8747   O.3       1 RES1  16.1250
    24 O       96.4612  93.7482  83.4269   O.3       1 RES1  21.8460
    25 P       94.9878  94.2923  83.1131   P.3       1 RES1  20.3310
    26 O       94.0911  93.1691  82.7205   O.2       1 RES1  20.0080
    27 O       94.4007  94.9945  84.4252   O.3       1 RES1  17.9760
    28 O       95.0456  95.3647  81.9271   O.3       1 RES1  32.4380
    29 O       99.7015  97.2183  79.4110   O.3       1 RES1  27.8160
    30 O      100.7998  99.4740  78.8134   O.3       1 RES1  27.8160
    31 N      107.0092 102.1745  80.9289   N.pl3     1 RES1  40.3360
    32 H1     104.0725 102.4859  77.5861   H         1 RES1   0.0000
    33 H2     103.3591  99.3968  83.2974   H         1 RES1   0.0000
    34 H3     100.9394 100.5604  81.0153   H         1 RES1   0.0000
    35 H4     102.5050  98.4718  79.4967   H         1 RES1   0.0000
    36 H5     101.3982  96.7608  80.5582   H         1 RES1   0.0000
    37 H6      99.2488  98.7518  81.4880   H         1 RES1   0.0000
    38 H7      98.6660  96.7492  82.5645   H         1 RES1   0.0000
    39 H8      99.9643  97.2588  83.6883   H         1 RES1   0.0000
    40 H9     101.4951  94.1435  84.5733   H         1 RES1   0.0000
    41 H10     96.1645  96.4631  83.5067   H         1 RES1   0.0000
    42 H11     94.7227  94.5437  85.1968   H         1 RES1   0.0000
    43 H12     94.7473  94.9613  81.1203   H         1 RES1   0.0000
    44 H13     99.9145  96.3851  79.0072   H         1 RES1   0.0000
    45 H14    101.0704  99.1574  77.9593   H         1 RES1   0.0000
    46 H15    107.7084 102.7324  80.4175   H         1 RES1   0.0000
    47 H16    107.2265 101.8151  81.8694   H         1 RES1   0.0000
    48 ****   106.1536 102.9126  78.6312   Du        1 RES1  24.5750
    49 ****   102.4696 101.1669  78.7723   Du        1 RES1  31.5030
    50 ****   105.5981 100.5867  82.9081   Du        1 RES1  30.7470
    51 ****   101.9546  98.2806  82.4737   Du        1 RES1  25.8020
    52 ****   100.9111  99.4405  82.9557   Du        1 RES1  25.7870
    53 ****    99.1223  93.7189  81.1449   Du        1 RES1  21.8640
    54 ****   100.1481  92.4930  81.8121   Du        1 RES1  21.8640
    55 ****   102.2398  93.9332  83.1816   Du        1 RES1  17.4550
    56 ****   101.3129  92.7512  83.8223   Du        1 RES1  17.1240
    57 ****    97.0478  95.3326  81.1646   Du        1 RES1  20.8900
    58 ****    98.7370  95.0402  81.4115   Du        1 RES1  21.8640
    59 ****    97.6547  96.9986  83.6757   Du        1 RES1  22.2270
    60 ****    96.9321  96.1441  84.8650   Du        1 RES1  19.2680
    61 ****    93.6078  93.1976  81.8456   Du        1 RES1  19.0230
    62 ****    93.9726  92.3868  83.3320   Du        1 RES1  20.0080
    63 ****    93.4017  94.9524  84.4072   Du        1 RES1  19.0230
    64 ****    94.6935  95.9503  84.4512   Du        1 RES1  18.4720
    65 ****    95.9863  95.6840  81.8120   Du        1 RES1  19.8270
    66 ****    94.4552  96.1404  82.1500   Du        1 RES1  19.0940
    67 ****    99.6384  97.9202  78.7015   Du        1 RES1  20.4150
    68 ****    98.8225  97.1398  79.8813   Du        1 RES1  20.9800
    69 ****   100.9753 100.4569  78.8687   Du        1 RES1  28.5050
    70 ****    99.8216  99.3029  78.9309   Du        1 RES1  23.6460
@<TRIPOS>BOND
     1     1     2   ar
     2     2     3   ar
     3     3     4   ar
     4     4     5   ar
     5     5     6   ar
     6     1     6   ar
     7     5     7   ar
     8     7     8   ar
     9     8     9   ar
    10     4     9   ar
    11     7    10    1
    12    10    11    1
    13    11    12    1
    14    12    13    1
    15    13    14    1
    16    10    14    1
    17    13    15    1
    18    15    16    1
    19    16    17    1
    20    17    18    2
    21    17    19    1
    22    17    20    1
    23    20    21    1
    24    21    22    2
    25    21    23    1
    26    21    24    1
    27    24    25    1
    28    25    26    2
    29    25    27    1
    30    25    28    1
    31    12    29    1
    32    11    30    1
    33     3    31    1
    34     1    32    1
    35     8    33    1
    36    10    34    1
    37    11    35    1
    38    12    36    1
    39    13    37    1
    40    15    38    1
    41    15    39    1
    42    19    40    1
    43    23    41    1
    44    27    42    1
    45    28    43    1
    46    29    44    1
    47    30    45    1
    48    31    46    1
    49    31    47    1
    50     2    48    1
    51     6    49    1
    52     9    50    1
    53    14    51    1
    54    14    52    1
    55    18    53    1
    56    18    54    1
    57    19    55    1
    58    19    56    1
    59    22    57    1
    60    22    58    1
    61    23    59    1
    62    23    60    1
    63    26    61    1
    64    26    62    1
    65    27    63    1
    66    27    64    1
    67    28    65    1
    68    28    66    1
    69    29    67    1
    70    29    68    1
    71    30    69    1
    72    30    70    1
@<TRIPOS>SUBSTRUCTURE
     1 RES1        1 GROUP             0 ****  ****    0  
@<TRIPOS>MOLECULE
15.5840425288
    70    72     1     0     0
SMALL
USER_CHARGES
****
Generated from the CSD

@<TRIPOS>ATOM
     1 C       97.1576  99.2102  80.9347   C.ar      1 RES1  22.2910
     2 N       95.9144  99.3767  80.4277   N.ar      1 RES1  22.2910
     3 C       94.9385  98.4676  80.6343   C.ar      1 RES1  20.8150
     4 C       95.2667  97.3443  81.3882   C.ar      1 RES1  22.2910
     5 C       96.5498  97.1950  81.8902   C.ar      1 RES1  22.2270
     6 N       97.4896  98.1307  81.6748   N.ar      1 RES1  22.2910
     7 N       96.5715  96.0247  82.5523   N.ar      1 RES1  20.4810
     8 C       95.3455  95.4637  82.4961   C.ar      1 RES1  19.8270
     9 N       94.5466  96.2744  81.7718   N.ar      1 RES1  18.7810
    10 C       97.6555  95.5167  83.2078   C.3       1 RES1  20.4810
    11 C       98.1391  94.1575  82.6481   C.3       1 RES1  21.8640
    12 C       99.6672  94.3279  82.5184   C.3       1 RES1  21.8640
    13 C       99.9447  95.5808  83.3712   C.3       1 RES1  20.3010
    14 O       98.7950  96.3718  83.0615   O.3       1 RES1  20.9800
    15 C      101.2543  96.2974  82.9789   C.3       1 RES1  19.5080
    16 O      101.1730  96.8193  81.6472   O.3       1 RES1  25.9170
    17 P      102.1345  97.9693  81.0851   P.3       1 RES1  25.4590
    18 O      103.5224  97.7313  81.5720   O.2       1 RES1  22.3720
    19 O      102.1326  97.9400  79.4855   O.3       1 RES1  27.8160
    20 O      101.6339  99.3941  81.6140   O.3       1 RES1  25.9170
    21 P      102.5906 100.5831  81.1321   P.3       1 RES1  32.3700
    22 O      103.4948 101.0108  82.2366   O.2       1 RES1  32.3700
    23 O      101.6951 101.8283  80.6768   O.3       1 RES1  27.7610
    24 O      103.4565 100.0776  79.8841   O.3       1 RES1  25.4640
    25 P      104.1538 101.3044  79.1261   P.3       1 RES1  31.5030
    26 O      104.9742 100.8117  77.9842   O.2       1 RES1  29.8030
    27 O      103.0198 102.2856  78.5688   O.3       1 RES1  33.4300
    28 O      105.0897 102.1105  80.1432   O.3       1 RES1  30.7720
    29 O      100.3629  93.1692  82.9939   O.3       1 RES1  19.0700
    30 O       97.8497  93.0974  83.5683   O.3       1 RES1  20.3410
    31 N       93.6960  98.6364  80.1331   N.pl3     1 RES1   5.7920
    32 H1      97.9100  99.9659  80.7409   H         1 RES1   0.0000
    33 H2      95.0455  94.5272  82.9512   H         1 RES1   0.0000
    34 H3      97.4340  95.4142  84.2812   H         1 RES1   0.0000
    35 H4      97.7060  93.9414  81.6589   H         1 RES1   0.0000
    36 H5      99.9167  94.5372  81.4663   H         1 RES1   0.0000
    37 H6      99.9475  95.3157  84.4398   H         1 RES1   0.0000
    38 H7     102.0907  95.5865  83.0435   H         1 RES1   0.0000
    39 H8     101.4419  97.1361  83.6650   H         1 RES1   0.0000
    40 H9     101.4834  97.3170  79.1810   H         1 RES1   0.0000
    41 H10    102.2585 102.5658  80.4740   H         1 RES1   0.0000
    42 H11    103.3691 102.7963  77.8481   H         1 RES1   0.0000
    43 H12    104.7752 101.9847  81.0308   H         1 RES1   0.0000
    44 H13     99.8449  92.7087  83.6437   H         1 RES1   0.0000
    45 H14     98.5853  92.9418  84.1494   H         1 RES1   0.0000
    46 H15     93.4714  99.4743  79.5771   H         1 RES1   0.0000
    47 H16     92.9710  97.9258  80.3073   H         1 RES1   0.0000
    48 ****    95.7138 100.1934  79.8865   Du        1 RES1  21.1340
    49 ****    98.4101  98.0304  82.0524   Du        1 RES1  22.2910
    50 ****    93.5842  96.1085  81.5568   Du        1 RES1  18.5870
    51 ****    98.8528  96.7112  82.1226   Du        1 RES1  20.9800
    52 ****    98.7287  97.1452  83.6919   Du        1 RES1  22.2270
    53 ****   104.2008  97.3166  80.9656   Du        1 RES1  22.3720
    54 ****   103.7755  97.9862  82.5053   Du        1 RES1  25.4590
    55 ****   103.0366  97.6673  79.1561   Du        1 RES1  23.6460
    56 ****   101.9110  98.8502  79.1357   Du        1 RES1  23.8360
    57 ****   104.3808 101.4238  82.0258   Du        1 RES1  32.3700
    58 ****   103.2156 100.8848  83.1885   Du        1 RES1  30.3250
    59 ****   101.0714 102.0788  81.4172   Du        1 RES1  28.5050
    60 ****   101.1663 101.5796  79.8653   Du        1 RES1  28.5050
    61 ****   105.9665 100.9357  77.9912   Du        1 RES1  23.9500
    62 ****   104.5326 100.3570  77.2107   Du        1 RES1  23.8240
    63 ****   102.7222 102.9001  79.2994   Du        1 RES1  32.3700
    64 ****   102.2406 101.7467  78.2486   Du        1 RES1  30.6300
    65 ****   105.0671 103.0842  79.9165   Du        1 RES1  32.3700
    66 ****   106.0283 101.7731  80.0712   Du        1 RES1  28.7730
    67 ****   101.2291  93.4526  83.4057   Du        1 RES1  20.8510
    68 ****   100.5443  92.5567  82.2246   Du        1 RES1  21.8640
    69 ****    97.6561  92.2617  83.0544   Du        1 RES1  20.7140
    70 ****    97.0492  93.3466  84.1133   Du        1 RES1  20.7140
@<TRIPOS>BOND
     1     1     2   ar
     2     2     3   ar
     3     3     4   ar
     4     4     5   ar
     5     5     6   ar
     6     1     6   ar
     7     5     7   ar
     8     7     8   ar
     9     8     9   ar
    10     4     9   ar
    11     7    10    1
    12    10    11    1
    13    11    12    1
    14    12    13    1
    15    13    14    1
    16    10    14    1
    17    13    15    1
    18    15    16    1
    19    16    17    1
    20    17    18    2
    21    17    19    1
    22    17    20    1
    23    20    21    1
    24    21    22    2
    25    21    23    1
    26    21    24    1
    27    24    25    1
    28    25    26    2
    29    25    27    1
    30    25    28    1
    31    12    29    1
    32    11    30    1
    33     3    31    1
    34     1    32    1
    35     8    33    1
    36    10    34    1
    37    11    35    1
    38    12    36    1
    39    13    37    1
    40    15    38    1
    41    15    39    1
    42    19    40    1
    43    23    41    1
    44    27    42    1
    45    28    43    1
    46    29    44    1
    47    30    45    1
    48    31    46    1
    49    31    47    1
    50     2    48    1
    51     6    49    1
    52     9    50    1
    53    14    51    1
    54    14    52    1
    55    18    53    1
    56    18    54    1
    57    19    55    1
    58    19    56    1
    59    22    57    1
    60    22    58    1
    61    23    59    1
    62    23    60    1
    63    26    61    1
    64    26    62    1
    65    27    63    1
    66    27    64    1
    67    28    65    1
    68    28    66    1
    69    29    67    1
    70    29    68    1
    71    30    69    1
    72    30    70    1
@<TRIPOS>SUBSTRUCTURE
     1 RES1        1 GROUP             0 ****  ****    0  
@<TRIPOS>MOLECULE
15.5717232887
    70    72     1     0     0
SMALL
USER_CHARGES
****
Generated from the CSD

@<TRIPOS>ATOM
     1 C       96.0678  95.7656  82.7319   C.ar      1 RES1  19.8270
     2 N       96.2486  94.6248  83.4363   N.ar      1 RES1  20.3310
     3 C       97.4287  93.9698  83.4314   C.ar      1 RES1  20.7140
     4 C       98.4541  94.5151  82.6638   C.ar      1 RES1  21.8640
     5 C       98.2401  95.6812  81.9461   C.ar      1 RES1  20.4810
     6 N       97.0544  96.3118  81.9894   N.ar      1 RES1  20.6940
     7 N       99.3874  95.9523  81.2991   N.ar      1 RES1  20.9800
     8 C      100.3027  95.0115  81.6119   C.ar      1 RES1  21.8640
     9 N       99.7227  94.1234  82.4457   N.ar      1 RES1  21.8640
    10 C       99.5933  97.0328  80.4910   C.3       1 RES1  20.9800
    11 C       98.5057  97.2122  79.4049   C.3       1 RES1  20.8900
    12 C       98.1455  98.7108  79.4792   C.3       1 RES1  21.1340
    13 C       99.3131  99.3029  80.2918   C.3       1 RES1  21.5210
    14 O       99.5364  98.2539  81.2371   O.3       1 RES1  21.3640
    15 C       98.9489 100.6316  80.9876   C.3       1 RES1  21.8060
    16 O      100.1137 101.2550  81.5419   O.3       1 RES1  18.5310
    17 P      101.6045 100.7251  81.2975   P.3       1 RES1  31.8690
    18 O      102.5745 101.7242  81.8275   O.2       1 RES1  32.3700
    19 O      101.8162  99.3374  82.0649   O.3       1 RES1  18.7820
    20 O      101.8567 100.5352  79.7289   O.3       1 RES1  23.7780
    21 P      103.2650 101.1410  79.2698   P.3       1 RES1  32.3700
    22 O      103.3194 102.6059  79.5367   O.2       1 RES1  32.3700
    23 O      103.4622 100.8867  77.7026   O.3       1 RES1  30.7720
    24 O      104.4346 100.3975  80.0713   O.3       1 RES1  37.8750
    25 P      105.6133 101.4127  80.4528   P.3       1 RES1  30.7470
    26 O      105.3000 102.1185  81.7269   O.2       1 RES1  30.7470
    27 O      106.9729 100.5890  80.6333   O.3       1 RES1   4.1670
    28 O      105.8042 102.4880  79.2834   O.3       1 RES1  19.9770
    29 O       98.0336  99.2854  78.1716   O.3       1 RES1  20.8740
    30 O       99.0299  96.9075  78.1061   O.3       1 RES1  27.8160
    31 N       97.6112  92.8342  84.1389   N.pl3     1 RES1  22.5120
    32 H1      95.1017  96.2559  82.7643   H         1 RES1   0.0000
    33 H2     101.3270  94.9691  81.2609   H         1 RES1   0.0000
    34 H3     100.5823  96.9638  80.0128   H         1 RES1   0.0000
    35 H4      97.6104  96.6061  79.6138   H         1 RES1   0.0000
    36 H5      97.2081  98.8267  80.0456   H         1 RES1   0.0000
    37 H6     100.1961  99.4274  79.6460   H         1 RES1   0.0000
    38 H7      98.2222 100.4347  81.7889   H         1 RES1   0.0000
    39 H8      98.5024 101.3249  80.2600   H         1 RES1   0.0000
    40 H9     102.5612  98.8803  81.6930   H         1 RES1   0.0000
    41 H10    104.0735 101.5245  77.3531   H         1 RES1   0.0000
    42 H11    107.6216 100.9097  80.0179   H         1 RES1   0.0000
    43 H12    105.7697 103.3639  79.6497   H         1 RES1   0.0000
    44 H13     98.6852  98.9180  77.5857   H         1 RES1   0.0000
    45 H14     99.5953  96.1445  78.1385   H         1 RES1   0.0000
    46 H15     96.8405  92.4452  84.7014   H         1 RES1   0.0000
    47 H16     98.5232  92.3560  84.1164   H         1 RES1   0.0000
    48 ****    95.4893  94.2579  83.9738   Du        1 RES1  20.3310
    49 ****    96.9067  97.1627  81.4852   Du        1 RES1  22.2270
    50 ****   100.1606  93.3130  82.8349   Du        1 RES1  21.8640
    51 ****    98.7863  98.2197  81.8975   Du        1 RES1  22.2270
    52 ****   100.3992  98.4032  81.7201   Du        1 RES1  21.8730
    53 ****   103.2804 102.1023  81.2285   Du        1 RES1  32.3700
    54 ****   102.5196 102.0167  82.7822   Du        1 RES1  30.3250
    55 ****   100.9962  98.7736  81.9664   Du        1 RES1  24.3780
    56 ****   101.9842  99.5149  83.0345   Du        1 RES1  28.7740
    57 ****   103.4828 103.2453  78.7854   Du        1 RES1  31.5030
    58 ****   103.1923 102.9497  80.4671   Du        1 RES1  32.3700
    59 ****   102.5821 100.9783  77.2366   Du        1 RES1  25.4070
    60 ****   103.8222  99.9652  77.5570   Du        1 RES1  25.8320
    61 ****   105.9729 102.7353  82.1354   Du        1 RES1  28.9400
    62 ****   104.4169 101.9755  82.1737   Du        1 RES1  32.3700
    63 ****   106.8005  99.6192  80.4608   Du        1 RES1  27.4490
    64 ****   107.3123 100.7064  81.5666   Du        1 RES1  26.6280
    65 ****   105.0741 102.3798  78.6087   Du        1 RES1  30.3660
    66 ****   106.6900 102.3461  78.8416   Du        1 RES1  26.6280
    67 ****    98.1696 100.2741  78.2349   Du        1 RES1  22.7610
    68 ****    97.1216  99.0970  77.8074   Du        1 RES1  22.2650
    69 ****    99.5556  97.6904  77.7734   Du        1 RES1  20.4150
    70 ****    98.2707  96.7259  77.4811   Du        1 RES1  16.6090
@<TRIPOS>BOND
     1     1     2   ar
     2     2     3   ar
     3     3     4   ar
     4     4     5   ar
     5     5     6   ar
     6     1     6   ar
     7     5     7   ar
     8     7     8   ar
     9     8     9   ar
    10     4     9   ar
    11     7    10    1
    12    10    11    1
    13    11    12    1
    14    12    13    1
    15    13    14    1
    16    10    14    1
    17    13    15    1
    18    15    16    1
    19    16    17    1
    20    17    18    2
    21    17    19    1
    22    17    20    1
    23    20    21    1
    24    21    22    2
    25    21    23    1
    26    21    24    1
    27    24    25    1
    28    25    26    2
    29    25    27    1
    30    25    28    1
    31    12    29    1
    32    11    30    1
    33     3    31    1
    34     1    32    1
    35     8    33    1
    36    10    34    1
    37    11    35    1
    38    12    36    1
    39    13    37    1
    40    15    38    1
    41    15    39    1
    42    19    40    1
    43    23    41    1
    44    27    42    1
    45    28    43    1
    46    29    44    1
    47    30    45    1
    48    31    46    1
    49    31    47    1
    50     2    48    1
    51     6    49    1
    52     9    50    1
    53    14    51    1
    54    14    52    1
    55    18    53    1
    56    18    54    1
    57    19    55    1
    58    19    56    1
    59    22    57    1
    60    22    58    1
    61    23    59    1
    62    23    60    1
    63    26    61    1
    64    26    62    1
    65    27    63    1
    66    27    64    1
    67    28    65    1
    68    28    66    1
    69    29    67    1
    70    29    68    1
    71    30    69    1
    72    30    70    1
@<TRIPOS>SUBSTRUCTURE
     1 RES1        1 GROUP             0 ****  ****    0  
@<TRIPOS>MOLECULE
15.535978784
    70    72     1     0     0
SMALL
USER_CHARGES
****
Generated from the CSD

@<TRIPOS>ATOM
     1 C       95.4793  94.9594  83.7318   C.ar      1 RES1  19.2680
     2 N       95.2579  93.6428  83.9504   N.ar      1 RES1  20.7140
     3 C       96.1336  92.7006  83.5414   C.ar      1 RES1  20.7140
     4 C       97.2752  93.1408  82.8774   C.ar      1 RES1  20.7140
     5 C       97.4743  94.4951  82.6605   C.ar      1 RES1  20.6200
     6 N       96.5854  95.4030  83.0970   N.ar      1 RES1  20.4810
     7 N       98.6356  94.6123  81.9927   N.ar      1 RES1  21.8640
     8 C       99.1672  93.3851  81.8139   C.ar      1 RES1  21.8640
     9 N       98.3234  92.4805  82.3523   N.ar      1 RES1  21.8640
    10 C       99.1968  95.7932  81.6008   C.3       1 RES1  20.9800
    11 C       98.1978  96.7605  80.9217   C.3       1 RES1  22.2270
    12 C       98.4663  98.1174  81.6056   C.3       1 RES1  22.2910
    13 C       99.8253  97.8895  82.2949   C.3       1 RES1  21.3640
    14 O       99.6790  96.5347  82.7271   O.3       1 RES1  20.9800
    15 C      100.0652  98.8458  83.4825   C.3       1 RES1  21.3640
    16 O      101.3886  99.3930  83.4396   O.3       1 RES1  25.9170
    17 P      102.4085  99.1536  82.2289   P.3       1 RES1  28.9270
    18 O      102.5312  97.6912  81.9713   O.2       1 RES1  22.3720
    19 O      101.8562  99.8694  80.9090   O.3       1 RES1  21.7600
    20 O      103.8474  99.7372  82.6153   O.3       1 RES1  11.9110
    21 P      104.3301 100.8695  81.5925   P.3       1 RES1  32.3700
    22 O      105.7488 101.2433  81.8533   O.2       1 RES1  30.7470
    23 O      103.4071 102.1647  81.7664   O.3       1 RES1   6.2260
    24 O      104.1785 100.3162  80.0979   O.3       1 RES1  37.8750
    25 P      104.2944 101.5004  79.0257   P.3       1 RES1  31.5030
    26 O      102.9816 102.1861  78.8640   O.2       1 RES1  31.5030
    27 O      105.3779 102.5613  79.5355   O.3       1 RES1  26.3160
    28 O      104.7630 100.9113  77.6138   O.3       1 RES1  30.7720
    29 O       98.5021  99.1844  80.6502   O.3       1 RES1  24.5760
    30 O       98.4687  96.8673  79.5183   O.3       1 RES1  26.0470
    31 N       95.9156  91.3868  83.7644   N.pl3     1 RES1  24.0600
    32 H1      94.7467  95.6800  84.0765   H         1 RES1   0.0000
    33 H2     100.1073  93.1564  81.3259   H         1 RES1   0.0000
    34 H3     100.0426  95.6028  80.9226   H         1 RES1   0.0000
    35 H4      97.1522  96.4605  81.0932   H         1 RES1   0.0000
    36 H5      97.6923  98.2935  82.3691   H         1 RES1   0.0000
    37 H6     100.6392  97.9679  81.5576   H         1 RES1   0.0000
    38 H7      99.9261  98.2967  84.4249   H         1 RES1   0.0000
    39 H8      99.3484  99.6788  83.4429   H         1 RES1   0.0000
    40 H9     101.4856 100.7136  81.1379   H         1 RES1   0.0000
    41 H10    102.4945 101.9019  81.7895   H         1 RES1   0.0000
    42 H11    105.1252 102.8855  80.3919   H         1 RES1   0.0000
    43 H12    104.7886 101.6107  76.9714   H         1 RES1   0.0000
    44 H13     97.7848  99.7903  80.7953   H         1 RES1   0.0000
    45 H14     99.1525  96.2614  79.2572   H         1 RES1   0.0000
    46 H15     95.0646  91.0796  84.2575   H         1 RES1   0.0000
    47 H16     96.6019  90.6901  83.4409   H         1 RES1   0.0000
    48 ****    94.4250  93.3607  84.4265   Du        1 RES1  20.0920
    49 ****    96.7387  96.3810  82.9556   Du        1 RES1  20.4810
    50 ****    98.4545  91.4891  82.3599   Du        1 RES1  20.2570
    51 ****    99.0236  96.4822  83.4806   Du        1 RES1  20.8240
    52 ****   100.5612  96.1714  83.0268   Du        1 RES1  20.9800
    53 ****   103.4341  97.2624  81.9439   Du        1 RES1  22.3720
    54 ****   101.7106  97.1385  81.8258   Du        1 RES1  21.5880
    55 ****   101.1502  99.2980  80.4905   Du        1 RES1  26.2450
    56 ****   102.6070  99.9995  80.2614   Du        1 RES1  31.9470
    57 ****   106.0392 101.4891  82.7781   Du        1 RES1  30.7470
    58 ****   106.4104 101.2484  81.1035   Du        1 RES1  30.7470
    59 ****   103.5558 102.7858  80.9969   Du        1 RES1  32.3700
    60 ****   103.6420 102.6294  82.6201   Du        1 RES1  32.3700
    61 ****   102.9490 103.1389  78.5622   Du        1 RES1  31.1390
    62 ****   102.1331 101.6935  79.0573   Du        1 RES1  31.5030
    63 ****   105.4260 103.3245  78.8911   Du        1 RES1  26.6380
    64 ****   106.2732 102.1201  79.5970   Du        1 RES1  26.6280
    65 ****   104.1176 100.2081  77.3154   Du        1 RES1  25.8320
    66 ****   105.6742 100.5099  77.7060   Du        1 RES1  23.3180
    67 ****    98.4278  98.8026  79.7289   Du        1 RES1  22.7610
    68 ****    99.3689  99.6751  80.7387   Du        1 RES1  21.5210
    69 ****    98.7621  97.8007  79.3118   Du        1 RES1  20.0310
    70 ****    97.6346  96.6593  79.0073   Du        1 RES1  20.8900
@<TRIPOS>BOND
     1     1     2   ar
     2     2     3   ar
     3     3     4   ar
     4     4     5   ar
     5     5     6   ar
     6     1     6   ar
     7     5     7   ar
     8     7     8   ar
     9     8     9   ar
    10     4     9   ar
    11     7    10    1
    12    10    11    1
    13    11    12    1
    14    12    13    1
    15    13    14    1
    16    10    14    1
    17    13    15    1
    18    15    16    1
    19    16    17    1
    20    17    18    2
    21    17    19    1
    22    17    20    1
    23    20    21    1
    24    21    22    2
    25    21    23    1
    26    21    24    1
    27    24    25    1
    28    25    26    2
    29    25    27    1
    30    25    28    1
    31    12    29    1
    32    11    30    1
    33     3    31    1
    34     1    32    1
    35     8    33    1
    36    10    34    1
    37    11    35    1
    38    12    36    1
    39    13    37    1
    40    15    38    1
    41    15    39    1
    42    19    40    1
    43    23    41    1
    44    27    42    1
    45    28    43    1
    46    29    44    1
    47    30    45    1
    48    31    46    1
    49    31    47    1
    50     2    48    1
    51     6    49    1
    52     9    50    1
    53    14    51    1
    54    14    52    1
    55    18    53    1
    56    18    54    1
    57    19    55    1
    58    19    56    1
    59    22    57    1
    60    22    58    1
    61    23    59    1
    62    23    60    1
    63    26    61    1
    64    26    62    1
    65    27    63    1
    66    27    64    1
    67    28    65    1
    68    28    66    1
    69    29    67    1
    70    29    68    1
    71    30    69    1
    72    30    70    1
@<TRIPOS>SUBSTRUCTURE
     1 RES1        1 GROUP             0 ****  ****    0  
@<TRIPOS>MOLECULE
15.499212752
    70    72     1     0     0
SMALL
USER_CHARGES
****
Generated from the CSD

@<TRIPOS>ATOM
     1 C       95.0448  97.1299  82.0569   C.ar      1 RES1  20.5070
     2 N       94.3922  96.0744  82.5958   N.ar      1 RES1  19.0940
     3 C       95.0067  94.8893  82.7950   C.ar      1 RES1  19.0520
     4 C       96.3429  94.7957  82.4158   C.ar      1 RES1  20.4810
     5 C       96.9858  95.8903  81.8597   C.ar      1 RES1  20.4810
     6 N       96.3427  97.0579  81.6918   N.ar      1 RES1  22.2270
     7 N       98.2430  95.5005  81.5841   N.ar      1 RES1  20.8900
     8 C       98.4020  94.2180  81.9723   C.ar      1 RES1  21.8640
     9 N       97.2282  93.7842  82.4763   N.ar      1 RES1  20.7140
    10 C       99.2070  96.2974  81.0376   C.3       1 RES1  20.9800
    11 C       98.6453  97.4188  80.1310   C.3       1 RES1  20.9800
    12 C       99.3996  98.6844  80.5896   C.3       1 RES1  20.9800
    13 C      100.5719  98.1065  81.4056   C.3       1 RES1  21.8730
    14 O       99.9274  97.0064  82.0521   O.3       1 RES1  20.9800
    15 C      101.1478  99.1116  82.4257   C.3       1 RES1  24.3780
    16 O      101.7726 100.2155  81.7596   O.3       1 RES1  25.9170
    17 P      103.0990 100.0808  80.8732   P.3       1 RES1  31.9470
    18 O      104.0922  99.2403  81.5992   O.2       1 RES1  30.7470
    19 O      102.7467  99.3811  79.4782   O.3       1 RES1  26.2200
    20 O      103.7273 101.5309  80.6230   O.3       1 RES1  36.8730
    21 P      105.1138 101.4551  79.8273   P.3       1 RES1  32.3700
    22 O      105.5980 102.8217  79.4833   O.2       1 RES1  28.2310
    23 O      104.9026 100.6198  78.4792   O.3       1 RES1  25.7630
    24 O      106.1953 100.7080  80.7413   O.3       1 RES1  37.8750
    25 P      107.6672 100.8382  80.1232   P.3       1 RES1  26.6280
    26 O      107.7727 100.0536  78.8611   O.2       1 RES1  22.3410
    27 O      107.9657 102.3778  79.8070   O.3       1 RES1   0.0000
    28 O      108.7474 100.3009  81.1741   O.3       1 RES1   0.0000
    29 O       99.8359  99.4652  79.4704   O.3       1 RES1  27.8160
    30 O       98.9418  97.1547  78.7538   O.3       1 RES1  27.8160
    31 N       94.3572  93.8374  83.3381   N.pl3     1 RES1  32.4380
    32 H1      94.5095  98.0615  81.9137   H         1 RES1   0.0000
    33 H2      99.3101  93.6315  81.8975   H         1 RES1   0.0000
    34 H3      99.9225  95.6867  80.4660   H         1 RES1   0.0000
    35 H4      97.5628  97.5614  80.2743   H         1 RES1   0.0000
    36 H5      98.7449  99.2716  81.2526   H         1 RES1   0.0000
    37 H6     101.3587  97.7415  80.7275   H         1 RES1   0.0000
    38 H7     101.8861  98.6015  83.0611   H         1 RES1   0.0000
    39 H8     100.3401  99.5061  83.0592   H         1 RES1   0.0000
    40 H9     101.8715  99.6340  79.2092   H         1 RES1   0.0000
    41 H10    104.7850 101.2187  77.7512   H         1 RES1   0.0000
    42 H11    107.5540 102.6180  78.9853   H         1 RES1   0.0000
    43 H12    109.1929  99.5441  80.8116   H         1 RES1   0.0000
    44 H13     99.3676 100.2910  79.4331   H         1 RES1   0.0000
    45 H14     99.6334  96.5081  78.6731   H         1 RES1   0.0000
    46 H15     93.3680  93.9252  83.6125   H         1 RES1   0.0000
    47 H16     94.8521  92.9450  83.4785   H         1 RES1   0.0000
    48 ****    93.4310  96.1747  82.8528   Du        1 RES1  18.4720
    49 ****    96.8126  97.8523  81.3068   Du        1 RES1  22.2910
    50 ****    97.0471  92.8679  82.8336   Du        1 RES1  20.7140
    51 ****    99.2971  97.3398  82.7532   Du        1 RES1  20.9800
    52 ****   100.6083  96.4074  82.4737   Du        1 RES1  20.9800
    53 ****   104.8420  98.8075  81.0985   Du        1 RES1  30.7470
    54 ****   104.0091  99.1089  82.5870   Du        1 RES1  30.7470
    55 ****   102.7891  98.3876  79.5836   Du        1 RES1  25.8020
    56 ****   103.4056  99.6711  78.7841   Du        1 RES1  26.3750
    57 ****   104.9448 103.5709  79.3745   Du        1 RES1  32.3700
    58 ****   106.5762 102.9895  79.3612   Du        1 RES1  26.6280
    59 ****   104.0921 100.0410  78.5691   Du        1 RES1  28.8240
    60 ****   105.7049 100.0465  78.3130   Du        1 RES1  24.8650
    61 ****   107.4965 100.4646  77.9923   Du        1 RES1  19.0850
    62 ****   108.1197  99.1160  78.8827   Du        1 RES1  10.9670
    63 ****   108.9534 102.5186  79.7385   Du        1 RES1   5.3320
    64 ****   107.5982 102.9466  80.5428   Du        1 RES1  26.6280
    65 ****   108.2864 100.0414  82.0227   Du        1 RES1  12.9270
    66 ****   109.4146 101.0211  81.3641   Du        1 RES1   1.2240
    67 ****    99.6668  98.9539  78.6277   Du        1 RES1  22.7610
    68 ****   100.8152  99.6471  79.5590   Du        1 RES1  26.2450
    69 ****    99.2344  98.0035  78.3135   Du        1 RES1  20.0310
    70 ****    98.1185  96.8114  78.3018   Du        1 RES1  20.8900
@<TRIPOS>BOND
     1     1     2   ar
     2     2     3   ar
     3     3     4   ar
     4     4     5   ar
     5     5     6   ar
     6     1     6   ar
     7     5     7   ar
     8     7     8   ar
     9     8     9   ar
    10     4     9   ar
    11     7    10    1
    12    10    11    1
    13    11    12    1
    14    12    13    1
    15    13    14    1
    16    10    14    1
    17    13    15    1
    18    15    16    1
    19    16    17    1
    20    17    18    2
    21    17    19    1
    22    17    20    1
    23    20    21    1
    24    21    22    2
    25    21    23    1
    26    21    24    1
    27    24    25    1
    28    25    26    2
    29    25    27    1
    30    25    28    1
    31    12    29    1
    32    11    30    1
    33     3    31    1
    34     1    32    1
    35     8    33    1
    36    10    34    1
    37    11    35    1
    38    12    36    1
    39    13    37    1
    40    15    38    1
    41    15    39    1
    42    19    40    1
    43    23    41    1
    44    27    42    1
    45    28    43    1
    46    29    44    1
    47    30    45    1
    48    31    46    1
    49    31    47    1
    50     2    48    1
    51     6    49    1
    52     9    50    1
    53    14    51    1
    54    14    52    1
    55    18    53    1
    56    18    54    1
    57    19    55    1
    58    19    56    1
    59    22    57    1
    60    22    58    1
    61    23    59    1
    62    23    60    1
    63    26    61    1
    64    26    62    1
    65    27    63    1
    66    27    64    1
    67    28    65    1
    68    28    66    1
    69    29    67    1
    70    29    68    1
    71    30    69    1
    72    30    70    1
@<TRIPOS>SUBSTRUCTURE
     1 RES1        1 GROUP             0 ****  ****    0  
@<TRIPOS>MOLECULE
15.2561488862
    70    72     1     0     0
SMALL
USER_CHARGES
****
Generated from the CSD

@<TRIPOS>ATOM
     1 C       96.9705  99.8271  79.5937   C.ar      1 RES1  22.2650
     2 N       95.8402  99.9279  78.8570   N.ar      1 RES1  21.1340
     3 C       94.7885  99.1064  79.0590   C.ar      1 RES1  20.8150
     4 C       94.9176  98.1434  80.0560   C.ar      1 RES1  20.4220
     5 C       96.0891  98.0574  80.7914   C.ar      1 RES1  22.2910
     6 N       97.1083  98.9043  80.5697   N.ar      1 RES1  22.2910
     7 N       95.9284  97.0395  81.6555   N.ar      1 RES1  22.2270
     8 C       94.6956  96.5152  81.4946   C.ar      1 RES1  18.7810
     9 N       94.0787  97.1915  80.5035   N.ar      1 RES1  17.3750
    10 C       96.8563  96.6380  82.5724   C.3       1 RES1  20.6940
    11 C       97.4961  95.2666  82.2488   C.3       1 RES1  20.4810
    12 C       99.0086  95.5039  82.4419   C.3       1 RES1  20.4810
    13 C       99.0490  96.8300  83.2254   C.3       1 RES1  22.2270
    14 O       97.9712  97.5362  82.6064   O.3       1 RES1  22.2910
    15 C      100.3888  97.5803  83.0691   C.3       1 RES1  20.9800
    16 O      100.8672  97.4981  81.7212   O.3       1 RES1  25.9170
    17 P      102.4191  97.5140  81.3285   P.3       1 RES1  22.3720
    18 O      103.0912  96.3289  81.9318   O.2       1 RES1  21.5880
    19 O      102.5736  97.4452  79.7376   O.3       1 RES1  26.2200
    20 O      103.1029  98.8452  81.8948   O.3       1 RES1  22.2230
    21 P      103.1487 100.0097  80.7979   P.3       1 RES1  31.9470
    22 O      101.7923 100.5911  80.5915   O.2       1 RES1  32.3700
    23 O      103.6768  99.4082  79.4127   O.3       1 RES1  20.9850
    24 O      104.1597 101.1480  81.2930   O.3       1 RES1  37.2370
    25 P      104.3787 102.2617  80.1629   P.3       1 RES1  32.3700
    26 O      105.8239 102.3774  79.8197   O.2       1 RES1  27.7990
    27 O      103.5632 101.8420  78.8520   O.3       1 RES1  33.4300
    28 O      103.8417 103.6764  80.6826   O.3       1 RES1  30.7720
    29 O       99.6192  94.4211  83.1541   O.3       1 RES1  19.0700
    30 O       97.0449  94.2657  83.1702   O.3       1 RES1  17.9840
    31 N       93.6581  99.2105  78.3277   N.pl3     1 RES1   0.0000
    32 H1      97.7904 100.5074  79.3943   H         1 RES1   0.0000
    33 H2      94.2669  95.6954  82.0588   H         1 RES1   0.0000
    34 H3      96.4059  96.6056  83.5763   H         1 RES1   0.0000
    35 H4      97.3004  94.9549  81.2109   H         1 RES1   0.0000
    36 H5      99.4780  95.6457  81.4557   H         1 RES1   0.0000
    37 H6      98.8236  96.6467  84.2873   H         1 RES1   0.0000
    38 H7     101.1326  97.1410  83.7494   H         1 RES1   0.0000
    39 H8     100.2545  98.6423  83.3211   H         1 RES1   0.0000
    40 H9     102.4321  96.5530  79.4439   H         1 RES1   0.0000
    41 H10    103.9394 100.1185  78.8391   H         1 RES1   0.0000
    42 H11    103.7599 102.4493  78.1486   H         1 RES1   0.0000
    43 H12    103.2815 104.0652  80.0211   H         1 RES1   0.0000
    44 H13    100.4804  94.6691  83.4696   H         1 RES1   0.0000
    45 H14     96.3411  94.5981  83.7151   H         1 RES1   0.0000
    46 H15     93.5807  99.9294  77.5936   H         1 RES1   0.0000
    47 H16     92.8712  98.5697  78.5044   H         1 RES1   0.0000
    48 ****    95.7826 100.6281  78.1454   Du        1 RES1  21.1340
    49 ****    97.9463  98.8527  81.1130   Du        1 RES1  22.2910
    50 ****    93.1560  97.0154  80.1604   Du        1 RES1  17.3750
    51 ****    98.2246  97.8063  81.6774   Du        1 RES1  22.2910
    52 ****    97.7416  98.3506  83.1393   Du        1 RES1  22.2910
    53 ****   103.5010  96.3958  82.8415   Du        1 RES1  18.6930
    54 ****   103.1324  95.4667  81.4270   Du        1 RES1  20.1940
    55 ****   103.4938  97.7391  79.4790   Du        1 RES1  23.0220
    56 ****   101.8991  98.0476  79.3108   Du        1 RES1  25.4590
    57 ****   101.4902 101.3652  81.1477   Du        1 RES1  31.8690
    58 ****   101.1842 100.2071  79.8967   Du        1 RES1  27.9720
    59 ****   102.9465  98.8812  78.9780   Du        1 RES1  23.8360
    60 ****   104.4607  98.8119  79.5854   Du        1 RES1  26.1640
    61 ****   106.4760 101.7041  80.1681   Du        1 RES1  28.7730
    62 ****   106.1418 103.1284  79.2410   Du        1 RES1  26.6280
    63 ****   102.5828 101.8649  79.0478   Du        1 RES1  31.5030
    64 ****   103.8267 100.9172  78.5774   Du        1 RES1  31.1390
    65 ****   104.6171 104.2823  80.8607   Du        1 RES1  27.0700
    66 ****   103.3203 103.5457  81.5259   Du        1 RES1  32.3700
    67 ****    99.7077  93.6347  82.5428   Du        1 RES1  21.8640
    68 ****    99.0429  94.1744  83.9332   Du        1 RES1  19.1010
    69 ****    97.8086  93.9903  83.7541   Du        1 RES1  20.3310
    70 ****    96.7152  93.4733  82.6569   Du        1 RES1  20.7140
@<TRIPOS>BOND
     1     1     2   ar
     2     2     3   ar
     3     3     4   ar
     4     4     5   ar
     5     5     6   ar
     6     1     6   ar
     7     5     7   ar
     8     7     8   ar
     9     8     9   ar
    10     4     9   ar
    11     7    10    1
    12    10    11    1
    13    11    12    1
    14    12    13    1
    15    13    14    1
    16    10    14    1
    17    13    15    1
    18    15    16    1
    19    16    17    1
    20    17    18    2
    21    17    19    1
    22    17    20    1
    23    20    21    1
    24    21    22    2
    25    21    23    1
    26    21    24    1
    27    24    25    1
    28    25    26    2
    29    25    27    1
    30    25    28    1
    31    12    29    1
    32    11    30    1
    33     3    31    1
    34     1    32    1
    35     8    33    1
    36    10    34    1
    37    11    35    1
    38    12    36    1
    39    13    37    1
    40    15    38    1
    41    15    39    1
    42    19    40    1
    43    23    41    1
    44    27    42    1
    45    28    43    1
    46    29    44    1
    47    30    45    1
    48    31    46    1
    49    31    47    1
    50     2    48    1
    51     6    49    1
    52     9    50    1
    53    14    51    1
    54    14    52    1
    55    18    53    1
    56    18    54    1
    57    19    55    1
    58    19    56    1
    59    22    57    1
    60    22    58    1
    61    23    59    1
    62    23    60    1
    63    26    61    1
    64    26    62    1
    65    27    63    1
    66    27    64    1
    67    28    65    1
    68    28    66    1
    69    29    67    1
    70    29    68    1
    71    30    69    1
    72    30    70    1
@<TRIPOS>SUBSTRUCTURE
     1 RES1        1 GROUP             0 ****  ****    0  
@<TRIPOS>MOLECULE
15.2504680131
    70    72     1     0     0
SMALL
USER_CHARGES
****
Generated from the CSD

@<TRIPOS>ATOM
     1 C       94.4853  96.6019  82.2595   C.ar      1 RES1  18.4720
     2 N       93.3480  96.4828  81.5364   N.ar      1 RES1  18.5870
     3 C       93.2783  96.8975  80.2539   C.ar      1 RES1  17.3750
     4 C       94.4273  97.4607  79.7057   C.ar      1 RES1  18.4070
     5 C       95.5772  97.5770  80.4705   C.ar      1 RES1  22.2910
     6 N       95.6104  97.1379  81.7399   N.ar      1 RES1  22.1840
     7 N       96.5021  98.1636  79.6903   N.ar      1 RES1  20.8900
     8 C       95.9712  98.3884  78.4703   C.ar      1 RES1  21.1340
     9 N       94.6912  97.9622  78.4853   N.ar      1 RES1  18.9800
    10 C       97.7828  98.4433  80.0704   C.3       1 RES1  21.1340
    11 C       98.8525  97.6587  79.2737   C.3       1 RES1  20.0310
    12 C       99.8928  98.7308  78.8869   C.3       1 RES1  23.6460
    13 C       99.5345  99.9057  79.8171   C.3       1 RES1  22.0810
    14 O       98.1078  99.8154  79.8201   O.3       1 RES1  22.0810
    15 C      100.0201 101.2684  79.2792   C.3       1 RES1  22.8670
    16 O      101.3434 101.5601  79.7443   O.3       1 RES1  23.7780
    17 P      102.6605 101.3549  78.8575   P.3       1 RES1  31.5030
    18 O      102.3321 100.5042  77.6791   O.2       1 RES1  28.3910
    19 O      103.1905 102.7739  78.3426   O.3       1 RES1  33.4300
    20 O      103.7867 100.6255  79.7291   O.3       1 RES1  37.8750
    21 P      104.9200 101.6438  80.2187   P.3       1 RES1  32.3700
    22 O      104.3394 102.6880  81.1092   O.2       1 RES1  32.3700
    23 O      105.5796 102.3506  78.9440   O.3       1 RES1  26.3160
    24 O      106.0485 100.8240  81.0044   O.3       1 RES1  40.3360
    25 P      105.4160  99.9624  82.1972   P.3       1 RES1  30.7470
    26 O      104.7477 100.8545  83.1858   O.2       1 RES1  30.7470
    27 O      104.3342  98.9504  81.5929   O.3       1 RES1   5.1240
    28 O      106.5646  99.1239  82.9305   O.3       1 RES1   0.0000
    29 O      101.2296  98.2552  79.0853   O.3       1 RES1  27.8160
    30 O       99.4716  96.6634  80.0987   O.3       1 RES1  24.3340
    31 N       92.1450  96.7736  79.5303   N.pl3     1 RES1   1.4750
    32 H1      94.4935  96.2568  83.2869   H         1 RES1   0.0000
    33 H2      96.4769  98.8318  77.6207   H         1 RES1   0.0000
    34 H3      97.9088  98.2473  81.1463   H         1 RES1   0.0000
    35 H4      98.4355  97.2024  78.3623   H         1 RES1   0.0000
    36 H5      99.7283  99.0285  77.8394   H         1 RES1   0.0000
    37 H6      99.9297  99.7195  80.8278   H         1 RES1   0.0000
    38 H7      99.3316 102.0575  79.6145   H         1 RES1   0.0000
    39 H8     100.0390 101.2515  78.1798   H         1 RES1   0.0000
    40 H9     103.7520 102.6471  77.5870   H         1 RES1   0.0000
    41 H10    104.9740 102.3134  78.2130   H         1 RES1   0.0000
    42 H11    103.6285  98.8312  82.2174   H         1 RES1   0.0000
    43 H12    107.3366  99.0933  82.3776   H         1 RES1   0.0000
    44 H13    101.2716  97.3127  78.9730   H         1 RES1   0.0000
    45 H14     99.8385  95.9643  79.5701   H         1 RES1   0.0000
    46 H15     91.3041  96.3543  79.9530   H         1 RES1   0.0000
    47 H16     92.1214  97.0988  78.5532   H         1 RES1   0.0000
    48 ****    92.5391  96.0777  81.9627   Du        1 RES1  17.6450
    49 ****    96.4458  97.2063  82.2852   Du        1 RES1  22.2270
    50 ****    94.0487  98.0107  77.7206   Du        1 RES1  13.2950
    51 ****    97.7426 100.0999  78.9338   Du        1 RES1  22.7610
    52 ****    97.7272 100.3965  80.5395   Du        1 RES1  22.2910
    53 ****   102.8198 100.6356  76.8160   Du        1 RES1  24.9420
    54 ****   101.6239  99.8019  77.7512   Du        1 RES1  27.9440
    55 ****   103.7087 103.2207  79.0718   Du        1 RES1  31.5030
    56 ****   102.4123 103.3476  78.0870   Du        1 RES1  30.6300
    57 ****   104.8390 102.9856  81.9227   Du        1 RES1  32.3700
    58 ****   103.4501 103.0912  80.8933   Du        1 RES1  32.3700
    59 ****   106.4257 101.8765  78.7005   Du        1 RES1  24.4000
    60 ****   105.7830 103.3056  79.1602   Du        1 RES1  24.6470
    61 ****   103.7498 100.8723  83.2487   Du        1 RES1  30.7470
    62 ****   105.2970 101.4355  83.7864   Du        1 RES1  27.9520
    63 ****   104.7688  98.0689  81.4087   Du        1 RES1  25.3360
    64 ****   103.9664  99.3250  80.7418   Du        1 RES1  30.7470
    65 ****   106.2403  98.1936  83.1019   Du        1 RES1  22.8740
    66 ****   106.7941  99.5623  83.7995   Du        1 RES1  24.3420
    67 ****   101.5270  98.4890  80.0110   Du        1 RES1  25.7650
    68 ****   101.8353  98.6922  78.4203   Du        1 RES1  23.6460
    69 ****    98.7869  96.2802  80.7186   Du        1 RES1  20.9800
    70 ****   100.2029  97.0889  80.6317   Du        1 RES1  20.9800
@<TRIPOS>BOND
     1     1     2   ar
     2     2     3   ar
     3     3     4   ar
     4     4     5   ar
     5     5     6   ar
     6     1     6   ar
     7     5     7   ar
     8     7     8   ar
     9     8     9   ar
    10     4     9   ar
    11     7    10    1
    12    10    11    1
    13    11    12    1
    14    12    13    1
    15    13    14    1
    16    10    14    1
    17    13    15    1
    18    15    16    1
    19    16    17    1
    20    17    18    2
    21    17    19    1
    22    17    20    1
    23    20    21    1
    24    21    22    2
    25    21    23    1
    26    21    24    1
    27    24    25    1
    28    25    26    2
    29    25    27    1
    30    25    28    1
    31    12    29    1
    32    11    30    1
    33     3    31    1
    34     1    32    1
    35     8    33    1
    36    10    34    1
    37    11    35    1
    38    12    36    1
    39    13    37    1
    40    15    38    1
    41    15    39    1
    42    19    40    1
    43    23    41    1
    44    27    42    1
    45    28    43    1
    46    29    44    1
    47    30    45    1
    48    31    46    1
    49    31    47    1
    50     2    48    1
    51     6    49    1
    52     9    50    1
    53    14    51    1
    54    14    52    1
    55    18    53    1
    56    18    54    1
    57    19    55    1
    58    19    56    1
    59    22    57    1
    60    22    58    1
    61    23    59    1
    62    23    60    1
    63    26    61    1
    64    26    62    1
    65    27    63    1
    66    27    64    1
    67    28    65    1
    68    28    66    1
    69    29    67    1
    70    29    68    1
    71    30    69    1
    72    30    70    1
@<TRIPOS>SUBSTRUCTURE
     1 RES1        1 GROUP             0 ****  ****    0  
@<TRIPOS>MOLECULE
14.628702151
    70    72     1     0     0
SMALL
USER_CHARGES
****
Generated from the CSD

@<TRIPOS>ATOM
     1 C      101.0952  94.4184  82.8461   C.ar      1 RES1  21.8640
     2 N      100.8976  93.3162  83.6053   N.ar      1 RES1  20.8510
     3 C       99.6572  92.8703  83.8957   C.ar      1 RES1  18.1760
     4 C       98.5856  93.5977  83.3853   C.ar      1 RES1  20.8510
     5 C       98.8160  94.7273  82.6160   C.ar      1 RES1  21.8640
     6 N      100.0670  95.1300  82.3367   N.ar      1 RES1  21.8640
     7 N       97.6099  95.2205  82.2836   N.ar      1 RES1  20.6200
     8 C       96.6505  94.4234  82.7985   C.ar      1 RES1  20.3310
     9 N       97.2542  93.4299  83.4832   N.ar      1 RES1  20.7140
    10 C       97.4029  96.3277  81.5128   C.3       1 RES1  20.9800
    11 C       96.0528  97.0322  81.7876   C.3       1 RES1  22.2270
    12 C       96.4261  98.5249  81.9048   C.3       1 RES1  22.2910
    13 C       97.8428  98.5711  81.3008   C.3       1 RES1  22.2910
    14 O       98.3788  97.3388  81.7886   O.3       1 RES1  22.2910
    15 C       98.6645  99.7840  81.7865   C.3       1 RES1  22.2910
    16 O       99.8104  99.9930  80.9524   O.3       1 RES1  23.1880
    17 P      101.1632  99.1456  81.0754   P.3       1 RES1  24.3780
    18 O      101.4761  98.9253  82.5155   O.2       1 RES1  25.7650
    19 O      100.9774  97.7263  80.3609   O.3       1 RES1  26.2200
    20 O      102.3668  99.9538  80.3984   O.3       1 RES1  16.9130
    21 P      103.7243  99.8217  81.2356   P.3       1 RES1  31.9470
    22 O      103.9444  98.4108  81.6611   O.2       1 RES1  27.8300
    23 O      103.6351 100.7523  82.5339   O.3       1 RES1   0.0000
    24 O      104.9451 100.3123  80.3235   O.3       1 RES1  37.8750
    25 P      104.6676 101.7680  79.7157   P.3       1 RES1  32.3700
    26 O      105.9502 102.4940  79.4980   O.2       1 RES1  26.6280
    27 O      103.9117 101.6126  78.3143   O.3       1 RES1  33.4300
    28 O      103.7454 102.6084  80.7173   O.3       1 RES1  30.7720
    29 O       95.4951  99.3520  81.1966   O.3       1 RES1   1.3860
    30 O       95.1505  96.8469  80.6895   O.3       1 RES1   7.7730
    31 N       99.4596  91.7669  84.6486   N.pl3     1 RES1  21.5680
    32 H1     102.1097  94.7403  82.6408   H         1 RES1   0.0000
    33 H2      95.5803  94.5503  82.6860   H         1 RES1   0.0000
    34 H3      97.4689  96.0631  80.4463   H         1 RES1   0.0000
    35 H4      95.5937  96.6910  82.7287   H         1 RES1   0.0000
    36 H5      96.4720  98.8005  82.9701   H         1 RES1   0.0000
    37 H6      97.7842  98.5518  80.2016   H         1 RES1   0.0000
    38 H7      98.9916  99.6101  82.8218   H         1 RES1   0.0000
    39 H8      98.0459 100.6926  81.7531   H         1 RES1   0.0000
    40 H9     101.1195  97.8211  79.4265   H         1 RES1   0.0000
    41 H10    103.2495 101.5879  82.2984   H         1 RES1   0.0000
    42 H11    104.2982 102.2033  77.6787   H         1 RES1   0.0000
    43 H12    103.4976 103.4287  80.3071   H         1 RES1   0.0000
    44 H13     95.9178  99.7822  80.4625   H         1 RES1   0.0000
    45 H14     95.4146  96.1079  80.1538   H         1 RES1   0.0000
    46 H15    100.2651  91.2412  85.0181   H         1 RES1   0.0000
    47 H16     98.5013  91.4499  84.8538   H         1 RES1   0.0000
    48 ****   101.6898  92.8197  83.9599   Du        1 RES1  17.1240
    49 ****   100.2321  95.9350  81.7668   Du        1 RES1  20.9800
    50 ****    96.7914  92.6947  83.9785   Du        1 RES1  20.7140
    51 ****    98.5429  97.4000  82.7731   Du        1 RES1  22.2910
    52 ****    99.2366  97.1268  81.3203   Du        1 RES1  22.2270
    53 ****   100.7400  98.7258  83.1623   Du        1 RES1  21.3640
    54 ****   102.4222  98.9769  82.8351   Du        1 RES1  28.9270
    55 ****   100.0501  97.3896  80.5245   Du        1 RES1  20.9800
    56 ****   101.6389  97.0760  80.7343   Du        1 RES1  21.5880
    57 ****   104.3699  97.7596  81.0328   Du        1 RES1  25.4590
    58 ****   103.6665  98.1151  82.5751   Du        1 RES1  25.4590
    59 ****   104.5532 100.9006  82.9015   Du        1 RES1  30.7470
    60 ****   103.0672 100.3061  83.2256   Du        1 RES1  30.3250
    61 ****   106.5383 102.2499  78.7269   Du        1 RES1  24.4000
    62 ****   106.2231 103.2255  80.1230   Du        1 RES1  26.6280
    63 ****   102.9439 101.8357  78.4311   Du        1 RES1  31.1390
    64 ****   103.9999 100.6706  77.9906   Du        1 RES1  30.6300
    65 ****   104.2521 102.7962  81.5587   Du        1 RES1  32.3700
    66 ****   102.9230 102.0823  80.9340   Du        1 RES1  32.3700
    67 ****    95.1329 100.0457  81.8192   Du        1 RES1  20.5070
    68 ****    94.7448  98.7849  80.8567   Du        1 RES1  18.9800
    69 ****    95.1455  97.6737  80.1270   Du        1 RES1  18.7840
    70 ****    94.2310  96.6808  81.0459   Du        1 RES1  18.5870
@<TRIPOS>BOND
     1     1     2   ar
     2     2     3   ar
     3     3     4   ar
     4     4     5   ar
     5     5     6   ar
     6     1     6   ar
     7     5     7   ar
     8     7     8   ar
     9     8     9   ar
    10     4     9   ar
    11     7    10    1
    12    10    11    1
    13    11    12    1
    14    12    13    1
    15    13    14    1
    16    10    14    1
    17    13    15    1
    18    15    16    1
    19    16    17    1
    20    17    18    2
    21    17    19    1
    22    17    20    1
    23    20    21    1
    24    21    22    2
    25    21    23    1
    26    21    24    1
    27    24    25    1
    28    25    26    2
    29    25    27    1
    30    25    28    1
    31    12    29    1
    32    11    30    1
    33     3    31    1
    34     1    32    1
    35     8    33    1
    36    10    34    1
    37    11    35    1
    38    12    36    1
    39    13    37    1
    40    15    38    1
    41    15    39    1
    42    19    40    1
    43    23    41    1
    44    27    42    1
    45    28    43    1
    46    29    44    1
    47    30    45    1
    48    31    46    1
    49    31    47    1
    50     2    48    1
    51     6    49    1
    52     9    50    1
    53    14    51    1
    54    14    52    1
    55    18    53    1
    56    18    54    1
    57    19    55    1
    58    19    56    1
    59    22    57    1
    60    22    58    1
    61    23    59    1
    62    23    60    1
    63    26    61    1
    64    26    62    1
    65    27    63    1
    66    27    64    1
    67    28    65    1
    68    28    66    1
    69    29    67    1
    70    29    68    1
    71    30    69    1
    72    30    70    1
@<TRIPOS>SUBSTRUCTURE
     1 RES1        1 GROUP             0 ****  ****    0  
@<TRIPOS>MOLECULE
14.4728509315
    70    72     1     0     0
SMALL
USER_CHARGES
****
Generated from the CSD

@<TRIPOS>ATOM
     1 C       95.2223  97.6103  78.0289   C.ar      1 RES1  18.3240
     2 N       94.1283  98.0341  78.7026   N.ar      1 RES1  15.1580
     3 C       94.2116  98.4957  79.9682   C.ar      1 RES1  15.8540
     4 C       95.4733  98.5117  80.5562   C.ar      1 RES1  22.2910
     5 C       96.5766  98.0654  79.8461   C.ar      1 RES1  20.8900
     6 N       96.4540  97.6274  78.5818   N.ar      1 RES1  20.8900
     7 N       97.6365  98.1837  80.6652   N.ar      1 RES1  22.2910
     8 C       97.2293  98.7078  81.8401   C.ar      1 RES1  22.2910
     9 N       95.8957  98.9010  81.7729   N.ar      1 RES1  22.2910
    10 C       98.9207  97.8609  80.3343   C.3       1 RES1  21.1430
    11 C       99.7181  99.0365  79.7203   C.3       1 RES1  22.7610
    12 C      101.0631  99.0122  80.4762   C.3       1 RES1  24.3780
    13 C      101.0579  97.6209  81.1381   C.3       1 RES1  22.0940
    14 O       99.6788  97.5029  81.4954   O.3       1 RES1  20.9800
    15 C      101.9779  97.5397  82.3748   C.3       1 RES1  22.3720
    16 O      103.1433  98.3544  82.2000   O.3       1 RES1  22.2230
    17 P      104.5743  97.7758  81.7751   P.3       1 RES1  25.4590
    18 O      105.4483  97.6928  82.9790   O.2       1 RES1  21.7050
    19 O      104.4016  96.3107  81.1562   O.3       1 RES1   5.4890
    20 O      105.2528  98.7531  80.7051   O.3       1 RES1  15.6290
    21 P      106.0510  99.9497  81.4066   P.3       1 RES1  30.7470
    22 O      107.3977  99.4934  81.8520   O.2       1 RES1  23.2190
    23 O      105.2245 100.4604  82.6777   O.3       1 RES1   0.0000
    24 O      106.2016 101.1540  80.3626   O.3       1 RES1  40.3360
    25 P      104.7735 101.6309  79.8162   P.3       1 RES1  32.3700
    26 O      104.3872 100.8423  78.6126   O.2       1 RES1  31.1390
    27 O      103.6769 101.4086  80.9596   O.3       1 RES1  25.7040
    28 O      104.8275 103.1846  79.4379   O.3       1 RES1  30.7720
    29 O      102.1670  99.1956  79.5816   O.3       1 RES1  27.8160
    30 O       99.9480  98.8188  78.3224   O.3       1 RES1  27.8160
    31 N       93.1206  98.9241  80.6389   N.pl3     1 RES1   5.7920
    32 H1      95.1066  97.2458  77.0147   H         1 RES1   0.0000
    33 H2      97.8564  98.9380  82.6932   H         1 RES1   0.0000
    34 H3      98.9285  97.0083  79.6381   H         1 RES1   0.0000
    35 H4      99.2188 100.0040  79.8852   H         1 RES1   0.0000
    36 H5     101.0503  99.7898  81.2560   H         1 RES1   0.0000
    37 H6     101.3265  96.8511  80.3982   H         1 RES1   0.0000
    38 H7     102.2817  96.4949  82.5336   H         1 RES1   0.0000
    39 H8     101.4404  97.8968  83.2652   H         1 RES1   0.0000
    40 H9     103.6523  95.8846  81.5554   H         1 RES1   0.0000
    41 H10    104.4829 100.9775  82.3859   H         1 RES1   0.0000
    42 H11    103.5056 102.2333  81.3989   H         1 RES1   0.0000
    43 H12    104.5337 103.3031  78.5422   H         1 RES1   0.0000
    44 H13    102.9471  99.4544  80.0582   H         1 RES1   0.0000
    45 H14    100.3653  97.9782  78.1736   H         1 RES1   0.0000
    46 H15     92.1946  98.9046  80.1875   H         1 RES1   0.0000
    47 H16     93.2146  99.2714  81.6041   H         1 RES1   0.0000
    48 ****    93.2361  98.0047  78.2519   Du        1 RES1   9.4060
    49 ****    97.2534  97.3222  78.0643   Du        1 RES1  20.0310
    50 ****    95.3199  99.2701  82.5024   Du        1 RES1  22.2910
    51 ****    99.4644  98.1216  82.2512   Du        1 RES1  21.3640
    52 ****    99.4720  96.5625  81.7655   Du        1 RES1  20.9800
    53 ****   105.3959  98.3995  83.6846   Du        1 RES1  27.8300
    54 ****   106.0872  96.9304  83.0815   Du        1 RES1  15.9640
    55 ****   105.2256  95.7735  81.3362   Du        1 RES1  19.4520
    56 ****   104.2583  96.3806  80.1690   Du        1 RES1  21.5880
    57 ****   107.7443  98.6011  81.5626   Du        1 RES1  17.5410
    58 ****   107.9550 100.0795  82.4402   Du        1 RES1  19.2640
    59 ****   105.8158 101.0223  83.2561   Du        1 RES1  30.7470
    60 ****   104.8971  99.6735  83.2007   Du        1 RES1  30.7470
    61 ****   105.0939 100.4534  78.0216   Du        1 RES1  29.8030
    62 ****   103.4211 100.7019  78.3957   Du        1 RES1  31.1390
    63 ****   104.0172 100.7421  81.6228   Du        1 RES1  32.3700
    64 ****   102.8312 101.0680  80.5487   Du        1 RES1  32.3700
    65 ****   105.7664 103.5170  79.5274   Du        1 RES1  24.6470
    66 ****   104.2317 103.6988  80.0548   Du        1 RES1  32.3700
    67 ****   101.9368  99.9074  78.9180   Du        1 RES1  29.3690
    68 ****   102.3459  98.3371  79.1009   Du        1 RES1  23.6460
    69 ****   100.5397  99.5445  77.9712   Du        1 RES1  23.6460
    70 ****    99.0725  98.8396  77.8396   Du        1 RES1  22.7610
@<TRIPOS>BOND
     1     1     2   ar
     2     2     3   ar
     3     3     4   ar
     4     4     5   ar
     5     5     6   ar
     6     1     6   ar
     7     5     7   ar
     8     7     8   ar
     9     8     9   ar
    10     4     9   ar
    11     7    10    1
    12    10    11    1
    13    11    12    1
    14    12    13    1
    15    13    14    1
    16    10    14    1
    17    13    15    1
    18    15    16    1
    19    16    17    1
    20    17    18    2
    21    17    19    1
    22    17    20    1
    23    20    21    1
    24    21    22    2
    25    21    23    1
    26    21    24    1
    27    24    25    1
    28    25    26    2
    29    25    27    1
    30    25    28    1
    31    12    29    1
    32    11    30    1
    33     3    31    1
    34     1    32    1
    35     8    33    1
    36    10    34    1
    37    11    35    1
    38    12    36    1
    39    13    37    1
    40    15    38    1
    41    15    39    1
    42    19    40    1
    43    23    41    1
    44    27    42    1
    45    28    43    1
    46    29    44    1
    47    30    45    1
    48    31    46    1
    49    31    47    1
    50     2    48    1
    51     6    49    1
    52     9    50    1
    53    14    51    1
    54    14    52    1
    55    18    53    1
    56    18    54    1
    57    19    55    1
    58    19    56    1
    59    22    57    1
    60    22    58    1
    61    23    59    1
    62    23    60    1
    63    26    61    1
    64    26    62    1
    65    27    63    1
    66    27    64    1
    67    28    65    1
    68    28    66    1
    69    29    67    1
    70    29    68    1
    71    30    69    1
    72    30    70    1
@<TRIPOS>SUBSTRUCTURE
     1 RES1        1 GROUP             0 ****  ****    0  
@<TRIPOS>MOLECULE
14.1499361079
    70    72     1     0     0
SMALL
USER_CHARGES
****
Generated from the CSD

@<TRIPOS>ATOM
     1 C      104.4500  97.2836  82.6895   C.ar      1 RES1  22.3720
     2 N      103.7235  96.2106  82.3009   N.ar      1 RES1  19.4620
     3 C      102.7638  96.3101  81.3570   C.ar      1 RES1  21.5880
     4 C      102.5473  97.5685  80.8023   C.ar      1 RES1  22.3720
     5 C      103.3011  98.6525  81.2234   C.ar      1 RES1  27.8300
     6 N      104.2582  98.5088  82.1554   N.ar      1 RES1  27.8300
     7 N      102.8626  99.7194  80.5321   N.ar      1 RES1  30.2670
     8 C      101.8869  99.3263  79.6869   C.ar      1 RES1  29.2970
     9 N      101.6893  98.0032  79.8615   N.ar      1 RES1  25.4590
    10 C      103.3617 100.9846  80.6463   C.3       1 RES1  32.3700
    11 C      104.7624 101.1592  80.0119   C.3       1 RES1  32.3700
    12 C      104.6399 102.4560  79.1845   C.3       1 RES1  31.5030
    13 C      103.3493 103.0921  79.7355   C.3       1 RES1  32.3700
    14 O      102.5466 101.9271  79.9405   O.3       1 RES1  32.3700
    15 C      102.6905 104.0728  78.7422   C.3       1 RES1  29.7110
    16 O      101.7044 103.4073  77.9440   O.3       1 RES1  23.0750
    17 P      100.9865 104.0781  76.6799   P.3       1 RES1  24.9290
    18 O      100.3424 105.3542  77.1003   O.2       1 RES1  20.2060
    19 O      102.0717 104.3920  75.5471   O.3       1 RES1  18.0680
    20 O       99.8633 103.0895  76.1129   O.3       1 RES1  26.7350
    21 P       98.4340 103.8018  76.0087   P.3       1 RES1  17.5290
    22 O       98.4886 104.9547  75.0663   O.2       1 RES1  16.4400
    23 O       98.0012 104.3288  77.4560   O.3       1 RES1   2.1330
    24 O       97.3580 102.7318  75.4985   O.3       1 RES1  11.0900
    25 P       95.9914 102.8424  76.3265   P.3       1 RES1  13.8800
    26 O       94.8724 102.2138  75.5699   O.2       1 RES1  10.0790
    27 O       96.1660 102.0851  77.7248   O.3       1 RES1  11.0610
    28 O       95.6468 104.3801  76.6036   O.3       1 RES1   2.1330
    29 O      105.7883 103.2950  79.3576   O.3       1 RES1  19.9770
    30 O      105.7615 101.3281  81.0256   O.3       1 RES1  19.9770
    31 N      102.0424  95.2381  80.9650   N.pl3     1 RES1  10.5640
    32 H1     105.2090  97.1562  83.4528   H         1 RES1   0.0000
    33 H2     101.3512  99.9556  78.9861   H         1 RES1   0.0000
    34 H3     103.3985 101.2820  81.7055   H         1 RES1   0.0000
    35 H4     105.0217 100.3200  79.3477   H         1 RES1   0.0000
    36 H5     104.4962 102.1929  78.1248   H         1 RES1   0.0000
    37 H6     103.5544 103.5869  80.6974   H         1 RES1   0.0000
    38 H7     103.4636 104.5010  78.0879   H         1 RES1   0.0000
    39 H8     102.1948 104.8858  79.2922   H         1 RES1   0.0000
    40 H9     102.8875 103.9545  75.7601   H         1 RES1   0.0000
    41 H10     98.2682 103.6987  78.1149   H         1 RES1   0.0000
    42 H11     96.4175 102.7102  78.3944   H         1 RES1   0.0000
    43 H12     95.2137 104.7498  75.8432   H         1 RES1   0.0000
    44 H13    105.5395 104.1338  79.7279   H         1 RES1   0.0000
    45 H14    105.5255 102.0293  81.6218   H         1 RES1   0.0000
    46 H15    102.2165  94.3144  81.3870   H         1 RES1   0.0000
    47 H16    101.3164  95.3442  80.2420   H         1 RES1   0.0000
    48 ****   103.9018  95.3219  82.7233   Du        1 RES1  18.0380
    49 ****   104.8135  99.2882  82.4456   Du        1 RES1  30.7470
    50 ****   101.0199  97.4418  79.3750   Du        1 RES1  23.6460
    51 ****   102.2617 101.5457  79.0611   Du        1 RES1  31.5030
    52 ****   101.7378 102.1567  80.4819   Du        1 RES1  31.8690
    53 ****   100.2299 105.5611  78.0722   Du        1 RES1  20.2060
    54 ****   100.0226 106.0038  76.4105   Du        1 RES1  17.9740
    55 ****   102.2257 105.3788  75.4975   Du        1 RES1  20.2060
    56 ****   101.7371 104.0621  74.6644   Du        1 RES1  14.3750
    57 ****    99.0608 104.9047  74.2477   Du        1 RES1  10.4280
    58 ****    97.9530 105.7785  75.2524   Du        1 RES1  12.8270
    59 ****    97.0081 104.4423  77.4862   Du        1 RES1  13.4720
    60 ****    98.4428 105.2076  77.6366   Du        1 RES1  17.2410
    61 ****    94.1843 101.6723  76.0529   Du        1 RES1   6.9560
    62 ****    94.8095 102.3333  74.5790   Du        1 RES1   2.6560
    63 ****    96.8754 101.3855  77.6387   Du        1 RES1  22.2650
    64 ****    95.3011 101.6530  77.9802   Du        1 RES1  21.1340
    65 ****    96.4917 104.8838  76.7837   Du        1 RES1  11.8630
    66 ****    95.0425 104.4484  77.3974   Du        1 RES1   2.8870
    67 ****   106.2225 103.4442  78.4693   Du        1 RES1  24.5750
    68 ****   106.4347 102.8436  79.9729   Du        1 RES1  26.6280
    69 ****   106.6348 101.5481  80.5908   Du        1 RES1  30.7470
    70 ****   105.8514 100.4762  81.5416   Du        1 RES1  30.7470
@<TRIPOS>BOND
     1     1     2   ar
     2     2     3   ar
     3     3     4   ar
     4     4     5   ar
     5     5     6   ar
     6     1     6   ar
     7     5     7   ar
     8     7     8   ar
     9     8     9   ar
    10     4     9   ar
    11     7    10    1
    12    10    11    1
    13    11    12    1
    14    12    13    1
    15    13    14    1
    16    10    14    1
    17    13    15    1
    18    15    16    1
    19    16    17    1
    20    17    18    2
    21    17    19    1
    22    17    20    1
    23    20    21    1
    24    21    22    2
    25    21    23    1
    26    21    24    1
    27    24    25    1
    28    25    26    2
    29    25    27    1
    30    25    28    1
    31    12    29    1
    32    11    30    1
    33     3    31    1
    34     1    32    1
    35     8    33    1
    36    10    34    1
    37    11    35    1
    38    12    36    1
    39    13    37    1
    40    15    38    1
    41    15    39    1
    42    19    40    1
    43    23    41    1
    44    27    42    1
    45    28    43    1
    46    29    44    1
    47    30    45    1
    48    31    46    1
    49    31    47    1
    50     2    48    1
    51     6    49    1
    52     9    50    1
    53    14    51    1
    54    14    52    1
    55    18    53    1
    56    18    54    1
    57    19    55    1
    58    19    56    1
    59    22    57    1
    60    22    58    1
    61    23    59    1
    62    23    60    1
    63    26    61    1
    64    26    62    1
    65    27    63    1
    66    27    64    1
    67    28    65    1
    68    28    66    1
    69    29    67    1
    70    29    68    1
    71    30    69    1
    72    30    70    1
@<TRIPOS>SUBSTRUCTURE
     1 RES1        1 GROUP             0 ****  ****    0  
@<TRIPOS>MOLECULE
13.8646382981
    70    72     1     0     0
SMALL
USER_CHARGES
****
Generated from the CSD

@<TRIPOS>ATOM
     1 C       96.6091  99.9486  76.5900   C.ar      1 RES1  20.4940
     2 N       95.4950 100.5024  76.0585   N.ar      1 RES1  14.6440
     3 C       94.4087 100.7699  76.8135   C.ar      1 RES1  17.1980
     4 C       94.4797 100.4454  78.1654   C.ar      1 RES1  18.9800
     5 C       95.6307  99.8726  78.6829   C.ar      1 RES1  21.1340
     6 N       96.6971  99.6359  77.9006   N.ar      1 RES1  21.9870
     7 N       95.4014  99.6599  79.9908   N.ar      1 RES1  21.1340
     8 C       94.1647 100.1025  80.2993   C.ar      1 RES1  14.0790
     9 N       93.5965 100.5780  79.1717   N.ar      1 RES1   7.8700
    10 C       96.3001  99.1201  80.8649   C.3       1 RES1  22.2910
    11 C       96.6804  97.6558  80.5394   C.3       1 RES1  22.2910
    12 C       98.2199  97.6365  80.6437   C.3       1 RES1  22.2910
    13 C       98.5280  98.9475  81.3922   C.3       1 RES1  22.2910
    14 O       97.5502  99.8171  80.8165   O.3       1 RES1  22.2910
    15 C       99.9635  99.4580  81.1451   C.3       1 RES1  22.7010
    16 O      100.7688  98.4441  80.5318   O.3       1 RES1  17.8470
    17 P      102.3685  98.4256  80.5913   P.3       1 RES1  26.3340
    18 O      102.8166  98.9163  81.9249   O.2       1 RES1  30.2670
    19 O      102.8987  96.9307  80.3824   O.3       1 RES1  24.4260
    20 O      102.9595  99.3869  79.4569   O.3       1 RES1  23.7780
    21 P      103.1915 100.8766  79.9936   P.3       1 RES1  32.3700
    22 O      102.0719 101.2952  80.8834   O.2       1 RES1  32.3700
    23 O      103.2734 101.8784  78.7489   O.3       1 RES1  33.4300
    24 O      104.5748 100.9278  80.7979   O.3       1 RES1  40.3360
    25 P      105.7483 101.5406  79.8964   P.3       1 RES1  29.2050
    26 O      105.8837 100.7730  78.6266   O.2       1 RES1  24.5750
    27 O      105.3997 103.0633  79.5510   O.3       1 RES1  26.3160
    28 O      107.1323 101.4893  80.6977   O.3       1 RES1   4.1670
    29 O       98.6800  96.4761  81.3469   O.3       1 RES1   7.1630
    30 O       96.1215  96.7588  81.5075   O.3       1 RES1   7.3780
    31 N       93.2987 101.3278  76.2844   N.pl3     1 RES1   0.0000
    32 H1      97.4567  99.7497  75.9443   H         1 RES1   0.0000
    33 H2      93.7009 100.0847  81.2785   H         1 RES1   0.0000
    34 H3      95.9096  99.1786  81.8924   H         1 RES1   0.0000
    35 H4      96.3752  97.3671  79.5214   H         1 RES1   0.0000
    36 H5      98.6485  97.6828  79.6302   H         1 RES1   0.0000
    37 H6      98.3369  98.8200  82.4689   H         1 RES1   0.0000
    38 H7     100.4139  99.7538  82.1036   H         1 RES1   0.0000
    39 H8      99.9405 100.3296  80.4749   H         1 RES1   0.0000
    40 H9     102.2797  96.4468  79.8485   H         1 RES1   0.0000
    41 H10    104.1794 101.9756  78.4802   H         1 RES1   0.0000
    42 H11    105.3501 103.1709  78.6086   H         1 RES1   0.0000
    43 H12    107.5750 102.3262  80.6193   H         1 RES1   0.0000
    44 H13     99.6290  96.4638  81.3912   H         1 RES1   0.0000
    45 H14     96.1107  95.8675  81.1783   H         1 RES1   0.0000
    46 H15     93.2642 101.5611  75.2813   H         1 RES1   0.0000
    47 H16     92.4845 101.5210  76.8851   H         1 RES1   0.0000
    48 ****    95.4760 100.7188  75.0824   Du        1 RES1   7.6250
    49 ****    97.5333  99.2388  78.2787   Du        1 RES1  22.7610
    50 ****    92.6766 100.9630  79.0967   Du        1 RES1   0.3160
    51 ****    97.7912 100.0273  79.8689   Du        1 RES1  22.0810
    52 ****    97.4921 100.6660  81.3417   Du        1 RES1  22.2910
    53 ****   103.7893  99.0679  82.1010   Du        1 RES1  30.7470
    54 ****   102.1447  99.0939  82.6440   Du        1 RES1  27.7230
    55 ****   102.9930  96.4832  81.2717   Du        1 RES1  21.5880
    56 ****   103.7875  96.9531  79.9247   Du        1 RES1  21.5880
    57 ****   101.2702 101.7514  80.4973   Du        1 RES1  31.8690
    58 ****   102.1223 101.1199  81.8666   Du        1 RES1  32.3700
    59 ****   102.9066 102.7701  79.0138   Du        1 RES1  31.5030
    60 ****   102.7380 101.5102  77.9888   Du        1 RES1  30.6300
    61 ****   105.6759  99.7950  78.6090   Du        1 RES1  24.8650
    62 ****   106.1822 101.2359  77.7920   Du        1 RES1  23.9500
    63 ****   106.1136 103.6600  79.9175   Du        1 RES1  24.6470
    64 ****   104.5202 103.3051  79.9609   Du        1 RES1  32.3700
    65 ****   107.7117 100.7689  80.3164   Du        1 RES1  26.6280
    66 ****   106.9521 101.2966  81.6622   Du        1 RES1  27.4490
    67 ****    98.3631  95.6563  80.8699   Du        1 RES1  20.8900
    68 ****    98.3083  96.4863  82.2752   Du        1 RES1  20.9800
    69 ****    95.1852  97.0426  81.7144   Du        1 RES1  20.5070
    70 ****    96.6722  96.7929  82.3415   Du        1 RES1  22.2270
@<TRIPOS>BOND
     1     1     2   ar
     2     2     3   ar
     3     3     4   ar
     4     4     5   ar
     5     5     6   ar
     6     1     6   ar
     7     5     7   ar
     8     7     8   ar
     9     8     9   ar
    10     4     9   ar
    11     7    10    1
    12    10    11    1
    13    11    12    1
    14    12    13    1
    15    13    14    1
    16    10    14    1
    17    13    15    1
    18    15    16    1
    19    16    17    1
    20    17    18    2
    21    17    19    1
    22    17    20    1
    23    20    21    1
    24    21    22    2
    25    21    23    1
    26    21    24    1
    27    24    25    1
    28    25    26    2
    29    25    27    1
    30    25    28    1
    31    12    29    1
    32    11    30    1
    33     3    31    1
    34     1    32    1
    35     8    33    1
    36    10    34    1
    37    11    35    1
    38    12    36    1
    39    13    37    1
    40    15    38    1
    41    15    39    1
    42    19    40    1
    43    23    41    1
    44    27    42    1
    45    28    43    1
    46    29    44    1
    47    30    45    1
    48    31    46    1
    49    31    47    1
    50     2    48    1
    51     6    49    1
    52     9    50    1
    53    14    51    1
    54    14    52    1
    55    18    53    1
    56    18    54    1
    57    19    55    1
    58    19    56    1
    59    22    57    1
    60    22    58    1
    61    23    59    1
    62    23    60    1
    63    26    61    1
    64    26    62    1
    65    27    63    1
    66    27    64    1
    67    28    65    1
    68    28    66    1
    69    29    67    1
    70    29    68    1
    71    30    69    1
    72    30    70    1
@<TRIPOS>SUBSTRUCTURE
     1 RES1        1 GROUP             0 ****  ****    0  
@<TRIPOS>MOLECULE
13.5215955795
    70    72     1     0     0
SMALL
USER_CHARGES
****
Generated from the CSD

@<TRIPOS>ATOM
     1 C      104.1252 101.9208  78.1516   C.ar      1 RES1  30.6300
     2 N      105.2149 102.2191  78.8959   N.ar      1 RES1  31.2620
     3 C      105.3026 101.8649  80.1953   C.ar      1 RES1  29.2050
     4 C      104.2190 101.1831  80.7419   C.ar      1 RES1  32.3700
     5 C      103.1120 100.8961  79.9590   C.ar      1 RES1  32.3700
     6 N      103.0698 101.2529  78.6643   N.ar      1 RES1  31.1390
     7 N      102.2343 100.2557  80.7514   N.ar      1 RES1  32.3700
     8 C      102.7706 100.1177  81.9819   C.ar      1 RES1  31.9470
     9 N      103.9891 100.6970  81.9753   N.ar      1 RES1  32.3700
    10 C      101.0160  99.7880  80.3516   C.3       1 RES1  27.9720
    11 C      101.0268  98.2948  79.9455   C.3       1 RES1  24.3780
    12 C       99.7988  97.7013  80.6672   C.3       1 RES1  20.9800
    13 C       99.0010  98.9559  81.0717   C.3       1 RES1  22.2270
    14 O      100.0647  99.8450  81.4205   O.3       1 RES1  22.7010
    15 C       98.0507  98.7065  82.2620   C.3       1 RES1  22.2910
    16 O       96.9353  97.8992  81.8659   O.3       1 RES1  14.6710
    17 P       95.8399  98.3643  80.7950   P.3       1 RES1  22.2910
    18 O       96.5165  99.0881  79.6822   O.2       1 RES1  21.9870
    19 O       95.0887  97.0829  80.2006   O.3       1 RES1   3.5850
    20 O       94.7892  99.3481  81.4939   O.3       1 RES1   8.9790
    21 P       93.7517  99.9634  80.4421   P.3       1 RES1  14.0790
    22 O       93.1530  98.8872  79.6033   O.2       1 RES1  10.2450
    23 O       94.5155 101.0019  79.4946   O.3       1 RES1   6.5910
    24 O       92.5996 100.7351  81.2421   O.3       1 RES1   5.7920
    25 P       91.1718 100.0465  81.0122   P.3       1 RES1   0.0000
    26 O       90.7838 100.1206  79.5756   O.2       1 RES1   0.0000
    27 O       91.2570  98.5104  81.4510   O.3       1 RES1   7.1150
    28 O       90.0636 100.7837  81.9000   O.3       1 RES1   0.0000
    29 O       99.0589  96.8287  79.8049   O.3       1 RES1  27.8160
    30 O      100.8668  98.1527  78.5282   O.3       1 RES1  27.8160
    31 N      106.3925 102.1575  80.9369   N.pl3     1 RES1  40.3360
    32 H1     104.0985 102.2275  77.1123   H         1 RES1   0.0000
    33 H2     102.3113  99.6278  82.8323   H         1 RES1   0.0000
    34 H3     100.6349 100.3935  79.5150   H         1 RES1   0.0000
    35 H4     101.9396  97.7815  80.2861   H         1 RES1   0.0000
    36 H5     100.1359  97.1728  81.5728   H         1 RES1   0.0000
    37 H6      98.4480  99.3463  80.2034   H         1 RES1   0.0000
    38 H7      97.6873  99.6710  82.6450   H         1 RES1   0.0000
    39 H8      98.5868  98.1801  83.0650   H         1 RES1   0.0000
    40 H9      95.7161  96.3828  80.0643   H         1 RES1   0.0000
    41 H10     93.9080 101.6729  79.2063   H         1 RES1   0.0000
    42 H11     90.9101  98.4123  82.3299   H         1 RES1   0.0000
    43 H12     90.4774 101.1823  82.6566   H         1 RES1   0.0000
    44 H13     99.6287  96.4367  79.1535   H         1 RES1   0.0000
    45 H14    100.6265  97.2619  78.3011   H         1 RES1   0.0000
    46 H15    107.1852 102.6631  80.5153   H         1 RES1   0.0000
    47 H16    106.4316 101.8743  81.9265   H         1 RES1   0.0000
    48 ****   105.9739 102.7141  78.4729   Du        1 RES1  24.5750
    49 ****   102.2780 101.0297  78.0957   Du        1 RES1  30.6300
    50 ****   104.6143 100.7550  82.7536   Du        1 RES1  30.7470
    51 ****   100.4908  99.5533  82.2769   Du        1 RES1  24.9120
    52 ****    99.7158 100.7766  81.5222   Du        1 RES1  21.5210
    53 ****    96.6600 100.0760  79.7426   Du        1 RES1  21.9870
    54 ****    96.8272  98.5861  78.8751   Du        1 RES1  21.1340
    55 ****    94.6612  97.3218  79.3287   Du        1 RES1  18.4070
    56 ****    94.3860  96.7800  80.8445   Du        1 RES1  18.4070
    57 ****    92.2785  99.0403  79.1430   Du        1 RES1   3.1270
    58 ****    93.6256  98.0120  79.5006   Du        1 RES1  14.6620
    59 ****    94.8821 100.5198  78.6988   Du        1 RES1  20.8150
    60 ****    95.2655 101.4266  80.0016   Du        1 RES1  21.1340
    61 ****    90.8852  99.3177  78.9882   Du        1 RES1   0.0000
    62 ****    90.4219 100.9733  79.1988   Du        1 RES1   0.0000
    63 ****    92.2111  98.2112  81.4339   Du        1 RES1  11.4980
    64 ****    90.7213  97.9524  80.8171   Du        1 RES1   2.9810
    65 ****    89.3832 100.1172  82.2048   Du        1 RES1   0.0000
    66 ****    89.6155 101.4913  81.3537   Du        1 RES1   0.0000
    67 ****    98.3441  97.3533  79.3424   Du        1 RES1  20.8900
    68 ****    98.6395  96.1046  80.3524   Du        1 RES1  20.9800
    69 ****   101.7284  98.3845  78.0768   Du        1 RES1  23.6460
    70 ****   100.1490  98.7750  78.2160   Du        1 RES1  23.6460
@<TRIPOS>BOND
     1     1     2   ar
     2     2     3   ar
     3     3     4   ar
     4     4     5   ar
     5     5     6   ar
     6     1     6   ar
     7     5     7   ar
     8     7     8   ar
     9     8     9   ar
    10     4     9   ar
    11     7    10    1
    12    10    11    1
    13    11    12    1
    14    12    13    1
    15    13    14    1
    16    10    14    1
    17    13    15    1
    18    15    16    1
    19    16    17    1
    20    17    18    2
    21    17    19    1
    22    17    20    1
    23    20    21    1
    24    21    22    2
    25    21    23    1
    26    21    24    1
    27    24    25    1
    28    25    26    2
    29    25    27    1
    30    25    28    1
    31    12    29    1
    32    11    30    1
    33     3    31    1
    34     1    32    1
    35     8    33    1
    36    10    34    1
    37    11    35    1
    38    12    36    1
    39    13    37    1
    40    15    38    1
    41    15    39    1
    42    19    40    1
    43    23    41    1
    44    27    42    1
    45    28    43    1
    46    29    44    1
    47    30    45    1
    48    31    46    1
    49    31    47    1
    50     2    48    1
    51     6    49    1
    52     9    50    1
    53    14    51    1
    54    14    52    1
    55    18    53    1
    56    18    54    1
    57    19    55    1
    58    19    56    1
    59    22    57    1
    60    22    58    1
    61    23    59    1
    62    23    60    1
    63    26    61    1
    64    26    62    1
    65    27    63    1
    66    27    64    1
    67    28    65    1
    68    28    66    1
    69    29    67    1
    70    29    68    1
    71    30    69    1
    72    30    70    1
@<TRIPOS>SUBSTRUCTURE
     1 RES1        1 GROUP             0 ****  ****    0  
@<TRIPOS>MOLECULE
13.4928722787
    70    72     1     0     0
SMALL
USER_CHARGES
****
Generated from the CSD

@<TRIPOS>ATOM
     1 C       94.0827 100.8534  80.0062   C.ar      1 RES1  14.0790
     2 N       92.8626 100.5985  80.5322   N.ar      1 RES1   2.9330
     3 C       92.5869  99.4279  81.1449   C.ar      1 RES1   7.4040
     4 C       93.6116  98.4877  81.2079   C.ar      1 RES1  15.3880
     5 C       94.8502  98.7717  80.6549   C.ar      1 RES1  20.8150
     6 N       95.0895  99.9556  80.0664   N.ar      1 RES1  20.8150
     7 N       95.6190  97.6861  80.8520   N.ar      1 RES1  22.2910
     8 C       94.9073  96.7584  81.5256   C.ar      1 RES1  20.5070
     9 N       93.6692  97.2515  81.7360   N.ar      1 RES1  16.3630
    10 C       96.9226  97.5699  80.4647   C.3       1 RES1  22.2910
    11 C       97.2068  98.1505  79.0587   C.3       1 RES1  20.8900
    12 C       98.4799  99.0002  79.2546   C.3       1 RES1  22.7610
    13 C       99.0118  98.5099  80.6150   C.3       1 RES1  21.1430
    14 O       97.7861  98.3207  81.3259   O.3       1 RES1  22.2910
    15 C       99.9234  99.5423  81.3119   C.3       1 RES1  22.7010
    16 O      101.2003  99.6157  80.6663   O.3       1 RES1  16.9130
    17 P      102.3770 100.5941  81.1367   P.3       1 RES1  32.3700
    18 O      101.9218 101.3771  82.3199   O.2       1 RES1  32.3700
    19 O      103.6624  99.7340  81.5459   O.3       1 RES1  18.7820
    20 O      102.7410 101.6053  79.9513   O.3       1 RES1  15.9680
    21 P      104.2708 101.4751  79.4999   P.3       1 RES1  32.3700
    22 O      104.9537 102.7976  79.5691   O.2       1 RES1  32.3700
    23 O      104.3320 100.9324  77.9961   O.3       1 RES1  30.7720
    24 O      105.0079 100.4303  80.4632   O.3       1 RES1  37.8750
    25 P      106.3130 101.0763  81.1303   P.3       1 RES1  30.7470
    26 O      106.9727 100.0961  82.0379   O.2       1 RES1  27.4490
    27 O      107.3390 101.4899  79.9746   O.3       1 RES1   0.0000
    28 O      105.9085 102.3815  81.9627   O.3       1 RES1   5.1120
    29 O       99.4137  98.7934  78.1879   O.3       1 RES1  27.8160
    30 O       97.4693  97.1005  78.1192   O.3       1 RES1  16.0230
    31 N       91.3709  99.1754  81.6750   N.pl3     1 RES1   4.5560
    32 H1      94.2575 101.8070  79.5215   H         1 RES1   0.0000
    33 H2      95.2602  95.7855  81.8467   H         1 RES1   0.0000
    34 H3      97.2333  96.5144  80.4960   H         1 RES1   0.0000
    35 H4      96.3852  98.7921  78.7038   H         1 RES1   0.0000
    36 H5      98.1945 100.0611  79.3327   H         1 RES1   0.0000
    37 H6      99.5322  97.5477  80.4910   H         1 RES1   0.0000
    38 H7     100.0608  99.2539  82.3640   H         1 RES1   0.0000
    39 H8      99.4604 100.5389  81.2701   H         1 RES1   0.0000
    40 H9     104.3911 100.3175  81.7216   H         1 RES1   0.0000
    41 H10    104.6263 101.6284  77.4204   H         1 RES1   0.0000
    42 H11    107.1233 101.0214  79.1769   H         1 RES1   0.0000
    43 H12    105.8395 102.1609  82.8842   H         1 RES1   0.0000
    44 H13     98.9641  98.7405  77.3526   H         1 RES1   0.0000
    45 H14     98.3465  96.7536  78.2337   H         1 RES1   0.0000
    46 H15     90.6244  99.8834  81.6187   H         1 RES1   0.0000
    47 H16     91.1893  98.2729  82.1371   H         1 RES1   0.0000
    48 ****    92.1476 101.2944  80.4654   Du        1 RES1   0.0000
    49 ****    95.9889 100.1662  79.6834   Du        1 RES1  21.1340
    50 ****    92.9224  96.7791  82.2041   Du        1 RES1  16.4660
    51 ****    97.3729  99.2053  81.5421   Du        1 RES1  22.2910
    52 ****    97.9531  97.8151  82.1723   Du        1 RES1  22.2910
    53 ****   102.4729 101.3882  83.1543   Du        1 RES1  30.3250
    54 ****   101.0652 101.8915  82.2796   Du        1 RES1  27.9720
    55 ****   103.9028  99.1168  80.7967   Du        1 RES1  30.7470
    56 ****   103.4584  99.1992  82.3659   Du        1 RES1  30.7470
    57 ****   105.6779 103.0212  78.9168   Du        1 RES1  26.6380
    58 ****   104.6879 103.4616  80.2680   Du        1 RES1  32.3700
    59 ****   103.4220 100.6287  77.7139   Du        1 RES1  28.3910
    60 ****   104.9705 100.1646  77.9444   Du        1 RES1  26.1100
    61 ****   106.6146  99.1655  82.1139   Du        1 RES1  30.7470
    62 ****   107.7736 100.3687  82.5710   Du        1 RES1  19.2640
    63 ****   108.2699 101.2572  80.2564   Du        1 RES1  12.9270
    64 ****   107.2768 102.4743  79.8102   Du        1 RES1  26.6280
    65 ****   105.0284 102.7259  81.6357   Du        1 RES1  32.3700
    66 ****   106.6082 103.0852  81.8399   Du        1 RES1  26.6280
    67 ****    99.9106  97.9404  78.3476   Du        1 RES1  23.6460
    68 ****   100.0598  99.5563  78.1650   Du        1 RES1  23.6460
    69 ****    97.3788  97.4616  77.1911   Du        1 RES1  16.1710
    70 ****    96.8060  96.3649  78.2568   Du        1 RES1  20.8900
@<TRIPOS>BOND
     1     1     2   ar
     2     2     3   ar
     3     3     4   ar
     4     4     5   ar
     5     5     6   ar
     6     1     6   ar
     7     5     7   ar
     8     7     8   ar
     9     8     9   ar
    10     4     9   ar
    11     7    10    1
    12    10    11    1
    13    11    12    1
    14    12    13    1
    15    13    14    1
    16    10    14    1
    17    13    15    1
    18    15    16    1
    19    16    17    1
    20    17    18    2
    21    17    19    1
    22    17    20    1
    23    20    21    1
    24    21    22    2
    25    21    23    1
    26    21    24    1
    27    24    25    1
    28    25    26    2
    29    25    27    1
    30    25    28    1
    31    12    29    1
    32    11    30    1
    33     3    31    1
    34     1    32    1
    35     8    33    1
    36    10    34    1
    37    11    35    1
    38    12    36    1
    39    13    37    1
    40    15    38    1
    41    15    39    1
    42    19    40    1
    43    23    41    1
    44    27    42    1
    45    28    43    1
    46    29    44    1
    47    30    45    1
    48    31    46    1
    49    31    47    1
    50     2    48    1
    51     6    49    1
    52     9    50    1
    53    14    51    1
    54    14    52    1
    55    18    53    1
    56    18    54    1
    57    19    55    1
    58    19    56    1
    59    22    57    1
    60    22    58    1
    61    23    59    1
    62    23    60    1
    63    26    61    1
    64    26    62    1
    65    27    63    1
    66    27    64    1
    67    28    65    1
    68    28    66    1
    69    29    67    1
    70    29    68    1
    71    30    69    1
    72    30    70    1
@<TRIPOS>SUBSTRUCTURE
     1 RES1        1 GROUP             0 ****  ****    0  
@<TRIPOS>MOLECULE
13.4863829156
    70    72     1     0     0
SMALL
USER_CHARGES
****
Generated from the CSD

@<TRIPOS>ATOM
     1 C       92.8457 101.2373  80.2680   C.ar      1 RES1   2.9330
     2 N       91.8338 100.8052  81.0552   N.ar      1 RES1   0.0000
     3 C       91.8181  99.5555  81.5649   C.ar      1 RES1   4.7390
     4 C       92.8868  98.7244  81.2408   C.ar      1 RES1  14.3530
     5 C       93.9072  99.1900  80.4266   C.ar      1 RES1  15.8540
     6 N       93.8934 100.4466  79.9513   N.ar      1 RES1  14.0790
     7 N       94.7766  98.1748  80.2787   N.ar      1 RES1  20.5070
     8 C       94.3411  97.1143  80.9902   C.ar      1 RES1  18.4070
     9 N       93.1732  97.4529  81.5747   N.ar      1 RES1  15.8990
    10 C       95.9327  98.2341  79.5557   C.3       1 RES1  20.8900
    11 C       95.7095  98.5058  78.0486   C.3       1 RES1  21.1340
    12 C       96.7273  99.6161  77.7132   C.3       1 RES1  21.9870
    13 C       97.6795  99.5836  78.9241   C.3       1 RES1  22.7610
    14 O       96.7533  99.3275  79.9825   O.3       1 RES1  22.0810
    15 C       98.4326 100.9147  79.1329   C.3       1 RES1  22.8670
    16 O       99.8334 100.6852  79.3268   O.3       1 RES1  23.7780
    17 P      100.7636  99.9297  78.2651   P.3       1 RES1  26.4780
    18 O      100.8214  98.4803  78.6057   O.2       1 RES1  23.6460
    19 O      100.1499 100.0946  76.7969   O.3       1 RES1  27.8160
    20 O      102.2429 100.5371  78.3190   O.3       1 RES1  23.7970
    21 P      102.2575 102.1091  78.0197   P.3       1 RES1  30.6300
    22 O      100.9057 102.6978  78.2347   O.2       1 RES1  28.0980
    23 O      102.6990 102.3523  76.5013   O.3       1 RES1  33.4300
    24 O      103.3183 102.8115  78.9916   O.3       1 RES1  36.8730
    25 P      104.5026 101.8063  79.3820   P.3       1 RES1  32.3700
    26 O      104.0462 100.8444  80.4242   O.2       1 RES1  32.3700
    27 O      104.9461 100.9915  78.0785   O.3       1 RES1  30.7720
    28 O      105.7566 102.6322  79.9347   O.3       1 RES1  19.9770
    29 O       97.3973  99.3519  76.4747   O.3       1 RES1  14.0420
    30 O       96.0008  97.3361  77.2732   O.3       1 RES1   9.3610
    31 N       90.8111  99.1258  82.3553   N.pl3     1 RES1   1.9310
    32 H1      92.8145 102.2487  79.8796   H         1 RES1   0.0000
    33 H2      94.8365  96.1550  81.0830   H         1 RES1   0.0000
    34 H3      96.5043  97.3017  79.6802   H         1 RES1   0.0000
    35 H4      94.6892  98.8646  77.8411   H         1 RES1   0.0000
    36 H5      96.2043 100.5848  77.6833   H         1 RES1   0.0000
    37 H6      98.3857  98.7448  78.8252   H         1 RES1   0.0000
    38 H7      98.0207 101.4310  80.0120   H         1 RES1   0.0000
    39 H8      98.3095 101.5569  78.2488   H         1 RES1   0.0000
    40 H9     100.2017 101.0054  76.5324   H         1 RES1   0.0000
    41 H10    103.1977 103.1587  76.4422   H         1 RES1   0.0000
    42 H11    104.8505 101.5441  77.3118   H         1 RES1   0.0000
    43 H12    105.4631 103.4768  80.2556   H         1 RES1   0.0000
    44 H13     98.1456  98.7827  76.6116   H         1 RES1   0.0000
    45 H14     96.7675  96.8874  77.6102   H         1 RES1   0.0000
    46 H15     90.0281  99.7552  82.5843   H         1 RES1   0.0000
    47 H16     90.8260  98.1666  82.7303   H         1 RES1   0.0000
    48 ****    91.0791 101.4269  81.2646   Du        1 RES1   0.0000
    49 ****    94.6390 100.7871  79.3784   Du        1 RES1  18.9800
    50 ****    92.6160  96.8604  82.1565   Du        1 RES1  15.4920
    51 ****    96.1897 100.1363  80.1505   Du        1 RES1  21.1340
    52 ****    97.2444  99.0838  80.8188   Du        1 RES1  22.2910
    53 ****   101.5667  98.1292  79.1725   Du        1 RES1  23.6460
    54 ****   100.1149  97.8586  78.2675   Du        1 RES1  23.6460
    55 ****    99.1935  99.8025  76.8006   Du        1 RES1  22.8670
    56 ****   100.6680  99.5307  76.1538   Du        1 RES1  22.7540
    57 ****   100.7941 103.4864  78.8395   Du        1 RES1  28.5050
    58 ****   100.1100 102.3044  77.7742   Du        1 RES1  23.8320
    59 ****   101.8851 102.4206  75.9243   Du        1 RES1  24.8440
    60 ****   103.2639 101.5874  76.1917   Du        1 RES1  24.8440
    61 ****   104.5402  99.9861  80.5632   Du        1 RES1  31.9470
    62 ****   103.2458 101.0571  80.9847   Du        1 RES1  32.3700
    63 ****   104.3686 100.1812  77.9794   Du        1 RES1  27.9440
    64 ****   105.9015 100.7108  78.1700   Du        1 RES1  23.9500
    65 ****   106.4179 102.7675  79.1969   Du        1 RES1  26.6280
    66 ****   106.1880 102.1240  80.6800   Du        1 RES1  30.7470
    67 ****    97.7102 100.2159  76.0802   Du        1 RES1  19.9340
    68 ****    96.7594  98.9094  75.8445   Du        1 RES1  18.1520
    69 ****    96.1697  97.6057  76.3251   Du        1 RES1  12.6610
    70 ****    95.2168  96.7163  77.3088   Du        1 RES1  14.6780
@<TRIPOS>BOND
     1     1     2   ar
     2     2     3   ar
     3     3     4   ar
     4     4     5   ar
     5     5     6   ar
     6     1     6   ar
     7     5     7   ar
     8     7     8   ar
     9     8     9   ar
    10     4     9   ar
    11     7    10    1
    12    10    11    1
    13    11    12    1
    14    12    13    1
    15    13    14    1
    16    10    14    1
    17    13    15    1
    18    15    16    1
    19    16    17    1
    20    17    18    2
    21    17    19    1
    22    17    20    1
    23    20    21    1
    24    21    22    2
    25    21    23    1
    26    21    24    1
    27    24    25    1
    28    25    26    2
    29    25    27    1
    30    25    28    1
    31    12    29    1
    32    11    30    1
    33     3    31    1
    34     1    32    1
    35     8    33    1
    36    10    34    1
    37    11    35    1
    38    12    36    1
    39    13    37    1
    40    15    38    1
    41    15    39    1
    42    19    40    1
    43    23    41    1
    44    27    42    1
    45    28    43    1
    46    29    44    1
    47    30    45    1
    48    31    46    1
    49    31    47    1
    50     2    48    1
    51     6    49    1
    52     9    50    1
    53    14    51    1
    54    14    52    1
    55    18    53    1
    56    18    54    1
    57    19    55    1
    58    19    56    1
    59    22    57    1
    60    22    58    1
    61    23    59    1
    62    23    60    1
    63    26    61    1
    64    26    62    1
    65    27    63    1
    66    27    64    1
    67    28    65    1
    68    28    66    1
    69    29    67    1
    70    29    68    1
    71    30    69    1
    72    30    70    1
@<TRIPOS>SUBSTRUCTURE
     1 RES1        1 GROUP             0 ****  ****    0  
@<TRIPOS>MOLECULE
13.4214255556
    70    72     1     0     0
SMALL
USER_CHARGES
****
Generated from the CSD

@<TRIPOS>ATOM
     1 C       93.8322  98.2846  77.2526   C.ar      1 RES1  14.0790
     2 N       92.9318  97.3263  77.5708   N.ar      1 RES1   9.9210
     3 C       92.9024  96.7621  78.7966   C.ar      1 RES1  17.3750
     4 C       93.8444  97.2040  79.7214   C.ar      1 RES1  17.3750
     5 C       94.7601  98.1822  79.3673   C.ar      1 RES1  20.4220
     6 N       94.7467  98.7300  78.1405   N.ar      1 RES1  18.9800
     7 N       95.5397  98.3888  80.4434   N.ar      1 RES1  22.2910
     8 C       95.1215  97.5934  81.4499   C.ar      1 RES1  20.5070
     9 N       94.0830  96.8591  80.9999   N.ar      1 RES1  17.3750
    10 C       96.5609  99.2921  80.5077   C.3       1 RES1  22.2910
    11 C       97.4785  99.1054  81.7397   C.3       1 RES1  22.2910
    12 C       98.9060  99.1770  81.1580   C.3       1 RES1  22.2270
    13 C       98.6755  99.7845  79.7609   C.3       1 RES1  22.0810
    14 O       97.4496  99.1470  79.3941   O.3       1 RES1  22.7610
    15 C       99.8103  99.4562  78.7676   C.3       1 RES1  23.6460
    16 O      100.5192  98.2786  79.1716   O.3       1 RES1  17.3360
    17 P      101.8138  98.3020  80.1132   P.3       1 RES1  25.8020
    18 O      101.4206  97.9212  81.4991   O.2       1 RES1  25.4590
    19 O      102.8933  97.2526  79.5722   O.3       1 RES1  24.4260
    20 O      102.4359  99.7761  80.1345   O.3       1 RES1  15.9680
    21 P      103.5912  99.9241  81.2320   P.3       1 RES1  31.9470
    22 O      103.7614  98.6531  81.9909   O.2       1 RES1  27.8300
    23 O      103.2028 101.0945  82.2513   O.3       1 RES1   0.0000
    24 O      104.9600 100.3057  80.4947   O.3       1 RES1  37.8750
    25 P      104.8571 101.7373  79.7838   P.3       1 RES1  32.3700
    26 O      106.1938 102.1683  79.2863   O.2       1 RES1  26.6280
    27 O      103.8484 101.6339  78.5464   O.3       1 RES1  33.4300
    28 O      104.3025 102.8211  80.8220   O.3       1 RES1  25.7040
    29 O       99.7627  99.9817  81.9772   O.3       1 RES1  12.4100
    30 O       97.2886 100.1699  82.6804   O.3       1 RES1   0.0000
    31 N       92.0001  95.8097  79.1162   N.pl3     1 RES1   0.0000
    32 H1      93.8194  98.7075  76.2547   H         1 RES1   0.0000
    33 H2      95.5395  97.5466  82.4486   H         1 RES1   0.0000
    34 H3      96.1596 100.3170  80.5004   H         1 RES1   0.0000
    35 H4      97.3252  98.1281  82.2237   H         1 RES1   0.0000
    36 H5      99.3021  98.1547  81.0531   H         1 RES1   0.0000
    37 H6      98.5287 100.8725  79.8432   H         1 RES1   0.0000
    38 H7     100.5074 100.3051  78.7191   H         1 RES1   0.0000
    39 H8      99.3914  99.2777  77.7666   H         1 RES1   0.0000
    40 H9     102.4571  96.4421  79.3374   H         1 RES1   0.0000
    41 H10    103.8635 101.1539  82.9313   H         1 RES1   0.0000
    42 H11    104.0493 102.3155  77.9161   H         1 RES1   0.0000
    43 H12    104.7993 102.7691  81.6301   H         1 RES1   0.0000
    44 H13    100.2666  99.4387  82.5722   H         1 RES1   0.0000
    45 H14     96.4917 100.6519  82.4917   H         1 RES1   0.0000
    46 H15     91.3103  95.4949  78.4185   H         1 RES1   0.0000
    47 H16     92.0013  95.3971  80.0600   H         1 RES1   0.0000
    48 ****    92.2718  97.0287  76.8810   Du        1 RES1   5.1690
    49 ****    95.3965  99.4483  77.8918   Du        1 RES1  21.1340
    50 ****    93.5772  96.1757  81.5263   Du        1 RES1  18.5870
    51 ****    97.6085  98.1782  79.2039   Du        1 RES1  20.8900
    52 ****    97.0616  99.5865  78.5839   Du        1 RES1  22.2650
    53 ****   102.0551  97.4056  82.0749   Du        1 RES1  22.3720
    54 ****   100.5223  98.1811  81.8532   Du        1 RES1  21.8730
    55 ****   103.5698  97.0723  80.2863   Du        1 RES1  21.5880
    56 ****   103.3510  97.6302  78.7672   Du        1 RES1  23.0220
    57 ****   103.8924  97.7916  81.5004   Du        1 RES1  25.4590
    58 ****   103.7445  98.6617  82.9907   Du        1 RES1  27.8300
    59 ****   102.3149 100.8947  82.6657   Du        1 RES1  32.3700
    60 ****   103.1526 101.9630  81.7583   Du        1 RES1  32.3700
    61 ****   106.2724 102.6380  78.4069   Du        1 RES1  24.4000
    62 ****   107.0123 101.9880  79.8317   Du        1 RES1  26.6280
    63 ****   102.9095 101.7468  78.8715   Du        1 RES1  31.5030
    64 ****   103.9451 100.7386  78.1115   Du        1 RES1  30.6300
    65 ****   103.3378 102.6380  81.0114   Du        1 RES1  32.3700
    66 ****   104.3974 103.7365  80.4307   Du        1 RES1  32.3700
    67 ****    99.2047 100.6196  82.5079   Du        1 RES1  21.8060
    68 ****   100.3895 100.4951  81.3911   Du        1 RES1  24.9120
    69 ****    98.0682 100.7941  82.6300   Du        1 RES1  20.1680
    70 ****    97.2282  99.7857  83.6016   Du        1 RES1  22.2910
@<TRIPOS>BOND
     1     1     2   ar
     2     2     3   ar
     3     3     4   ar
     4     4     5   ar
     5     5     6   ar
     6     1     6   ar
     7     5     7   ar
     8     7     8   ar
     9     8     9   ar
    10     4     9   ar
    11     7    10    1
    12    10    11    1
    13    11    12    1
    14    12    13    1
    15    13    14    1
    16    10    14    1
    17    13    15    1
    18    15    16    1
    19    16    17    1
    20    17    18    2
    21    17    19    1
    22    17    20    1
    23    20    21    1
    24    21    22    2
    25    21    23    1
    26    21    24    1
    27    24    25    1
    28    25    26    2
    29    25    27    1
    30    25    28    1
    31    12    29    1
    32    11    30    1
    33     3    31    1
    34     1    32    1
    35     8    33    1
    36    10    34    1
    37    11    35    1
    38    12    36    1
    39    13    37    1
    40    15    38    1
    41    15    39    1
    42    19    40    1
    43    23    41    1
    44    27    42    1
    45    28    43    1
    46    29    44    1
    47    30    45    1
    48    31    46    1
    49    31    47    1
    50     2    48    1
    51     6    49    1
    52     9    50    1
    53    14    51    1
    54    14    52    1
    55    18    53    1
    56    18    54    1
    57    19    55    1
    58    19    56    1
    59    22    57    1
    60    22    58    1
    61    23    59    1
    62    23    60    1
    63    26    61    1
    64    26    62    1
    65    27    63    1
    66    27    64    1
    67    28    65    1
    68    28    66    1
    69    29    67    1
    70    29    68    1
    71    30    69    1
    72    30    70    1
@<TRIPOS>SUBSTRUCTURE
     1 RES1        1 GROUP             0 ****  ****    0  
@<TRIPOS>MOLECULE
13.4086595799
    70    72     1     0     0
SMALL
USER_CHARGES
****
Generated from the CSD

@<TRIPOS>ATOM
     1 C      104.9888 101.7893  78.2553   C.ar      1 RES1  30.3660
     2 N      105.7654 102.2012  79.2837   N.ar      1 RES1  26.6280
     3 C      105.4955 101.8502  80.5587   C.ar      1 RES1  30.7470
     4 C      104.3775 101.0491  80.7734   C.ar      1 RES1  32.3700
     5 C      103.5949 100.6468  79.7027   C.ar      1 RES1  32.3700
     6 N      103.9061 101.0054  78.4458   N.ar      1 RES1  31.1390
     7 N      102.5936  99.9080  80.2125   N.ar      1 RES1  31.9470
     8 C      102.7464  99.8218  81.5504   C.ar      1 RES1  31.9470
     9 N      103.8408 100.5322  81.8938   N.ar      1 RES1  32.3700
    10 C      101.6097  99.3111  79.4786   C.3       1 RES1  29.2970
    11 C      100.7643  98.2950  80.2833   C.3       1 RES1  24.3780
    12 C       99.3068  98.6520  79.9234   C.3       1 RES1  21.0590
    13 C       99.4711  99.5411  78.6757   C.3       1 RES1  22.8670
    14 O      100.6494 100.2716  79.0245   O.3       1 RES1  24.0510
    15 C       98.2664 100.4772  78.4414   C.3       1 RES1  22.8670
    16 O       97.0442  99.8497  78.8477   O.3       1 RES1  15.2270
    17 P       95.7090  99.8537  77.9643   P.3       1 RES1  21.1340
    18 O       94.7171 100.7818  78.5767   O.2       1 RES1  18.9800
    19 O       96.0441 100.3551  76.4825   O.3       1 RES1  11.0610
    20 O       95.0875  98.3798  77.9235   O.3       1 RES1   3.6200
    21 P       95.0520  97.7843  76.4385   P.3       1 RES1  13.6720
    22 O       96.3895  97.9029  75.7924   O.2       1 RES1  12.0870
    23 O       93.9783  98.5940  75.5717   O.3       1 RES1   0.0000
    24 O       94.6150  96.2457  76.5077   O.3       1 RES1   0.0000
    25 P       93.1758  96.0810  77.1911   P.3       1 RES1   6.2610
    26 O       92.8230  94.6392  77.3198   O.2       1 RES1  12.6620
    27 O       93.2114  96.7415  78.6478   O.3       1 RES1   0.0000
    28 O       92.0666  96.8221  76.3075   O.3       1 RES1   0.0000
    29 O       98.5304  97.4756  79.6666   O.3       1 RES1  26.0470
    30 O      101.0483  96.9539  79.8649   O.3       1 RES1  27.8160
    31 N      106.2737 102.2564  81.5848   N.pl3     1 RES1  37.2370
    32 H1     105.2432 102.0981  77.2480   H         1 RES1   0.0000
    33 H2     102.1079  99.2784  82.2368   H         1 RES1   0.0000
    34 H3     102.0445  98.8123  78.5989   H         1 RES1   0.0000
    35 H4     100.9138  98.4025  81.3690   H         1 RES1   0.0000
    36 H5      98.8703  99.2453  80.7421   H         1 RES1   0.0000
    37 H6      99.6597  98.9152  77.7898   H         1 RES1   0.0000
    38 H7      98.2089 100.7349  77.3740   H         1 RES1   0.0000
    39 H8      98.3896 101.3995  79.0275   H         1 RES1   0.0000
    40 H9      96.7858 100.9480  76.5089   H         1 RES1   0.0000
    41 H10     93.2258  98.0396  75.4021   H         1 RES1   0.0000
    42 H11     92.3690  97.1377  78.8366   H         1 RES1   0.0000
    43 H12     91.7311  97.5723  76.7841   H         1 RES1   0.0000
    44 H13     99.0938  96.7202  79.5462   H         1 RES1   0.0000
    45 H14    100.3657  96.6252  79.2913   H         1 RES1   0.0000
    46 H15    107.0974 102.8494  81.4067   H         1 RES1   0.0000
    47 H16    106.0434 101.9726  82.5478   H         1 RES1   0.0000
    48 ****   106.5587 102.7799  79.0946   Du        1 RES1  26.6280
    49 ****   103.3509 100.6998  77.6722   Du        1 RES1  28.3910
    50 ****   104.1927 100.6537  82.8219   Du        1 RES1  30.7470
    51 ****   100.4461 100.9264  79.7524   Du        1 RES1  24.9120
    52 ****   101.0013 100.7597  78.2258   Du        1 RES1  28.0980
    53 ****    94.5616 101.6839  78.1742   Du        1 RES1  18.7710
    54 ****    94.2068 100.5025  79.3901   Du        1 RES1  14.0790
    55 ****    95.2502 100.8311  76.1041   Du        1 RES1  14.6440
    56 ****    96.2667  99.5684  75.9067   Du        1 RES1  16.9620
    57 ****    96.4832  97.7604  74.8070   Du        1 RES1   6.5940
    58 ****    97.1934  98.1249  76.3442   Du        1 RES1  16.5680
    59 ****    94.3909  98.8708  74.7038   Du        1 RES1   1.4090
    60 ****    93.6868  99.4066  76.0764   Du        1 RES1   3.8060
    61 ****    93.4665  93.9378  77.0135   Du        1 RES1   6.2610
    62 ****    91.9427  94.3730  77.7124   Du        1 RES1  10.6710
    63 ****    93.9239  97.4426  78.6785   Du        1 RES1  16.6320
    64 ****    93.4083  96.0362  79.3288   Du        1 RES1  18.5870
    65 ****    91.3176  96.1887  76.1130   Du        1 RES1   0.0000
    66 ****    92.4754  97.1288  75.4480   Du        1 RES1   0.0000
    67 ****    97.9873  97.6152  78.8386   Du        1 RES1  20.8900
    68 ****    97.9203  97.3097  80.4414   Du        1 RES1  22.2910
    69 ****   101.1096  96.3656  80.6712   Du        1 RES1  20.7330
    70 ****   101.9206  96.9414  79.3761   Du        1 RES1  21.5880
@<TRIPOS>BOND
     1     1     2   ar
     2     2     3   ar
     3     3     4   ar
     4     4     5   ar
     5     5     6   ar
     6     1     6   ar
     7     5     7   ar
     8     7     8   ar
     9     8     9   ar
    10     4     9   ar
    11     7    10    1
    12    10    11    1
    13    11    12    1
    14    12    13    1
    15    13    14    1
    16    10    14    1
    17    13    15    1
    18    15    16    1
    19    16    17    1
    20    17    18    2
    21    17    19    1
    22    17    20    1
    23    20    21    1
    24    21    22    2
    25    21    23    1
    26    21    24    1
    27    24    25    1
    28    25    26    2
    29    25    27    1
    30    25    28    1
    31    12    29    1
    32    11    30    1
    33     3    31    1
    34     1    32    1
    35     8    33    1
    36    10    34    1
    37    11    35    1
    38    12    36    1
    39    13    37    1
    40    15    38    1
    41    15    39    1
    42    19    40    1
    43    23    41    1
    44    27    42    1
    45    28    43    1
    46    29    44    1
    47    30    45    1
    48    31    46    1
    49    31    47    1
    50     2    48    1
    51     6    49    1
    52     9    50    1
    53    14    51    1
    54    14    52    1
    55    18    53    1
    56    18    54    1
    57    19    55    1
    58    19    56    1
    59    22    57    1
    60    22    58    1
    61    23    59    1
    62    23    60    1
    63    26    61    1
    64    26    62    1
    65    27    63    1
    66    27    64    1
    67    28    65    1
    68    28    66    1
    69    29    67    1
    70    29    68    1
    71    30    69    1
    72    30    70    1
@<TRIPOS>SUBSTRUCTURE
     1 RES1        1 GROUP             0 ****  ****    0  
@<TRIPOS>MOLECULE
13.2409146999
    70    72     1     0     0
SMALL
USER_CHARGES
****
Generated from the CSD

@<TRIPOS>ATOM
     1 C      104.5463 101.3436  78.1440   C.ar      1 RES1  30.6300
     2 N      105.0060 102.3805  78.8814   N.ar      1 RES1  31.2620
     3 C      104.5335 102.6320  80.1204   C.ar      1 RES1  32.3700
     4 C      103.5453 101.7810  80.6076   C.ar      1 RES1  32.3700
     5 C      103.0872 100.7302  79.8287   C.ar      1 RES1  32.3700
     6 N      103.5945 100.5043  78.6053   N.ar      1 RES1  31.1390
     7 N      102.1382 100.1032  80.5461   N.ar      1 RES1  31.9470
     8 C      102.0148 100.7138  81.7430   C.ar      1 RES1  32.3700
     9 N      102.8765 101.7514  81.7748   N.ar      1 RES1  32.3700
    10 C      101.4471  99.0005  80.1343   C.3       1 RES1  25.7650
    11 C      101.6433  97.7674  81.0485   C.3       1 RES1  25.4590
    12 C      100.2124  97.2345  81.2709   C.3       1 RES1  20.9800
    13 C       99.4067  97.9484  80.1685   C.3       1 RES1  20.9800
    14 O      100.0345  99.2328  80.1716   O.3       1 RES1  23.6460
    15 C       97.9008  98.0472  80.4923   C.3       1 RES1  22.2910
    16 O       97.2751  99.0709  79.7093   O.3       1 RES1  15.4930
    17 P       96.0709  98.7968  78.6905   P.3       1 RES1  21.1340
    18 O       96.3070  99.5607  77.4332   O.2       1 RES1  21.9870
    19 O       96.0013  97.2362  78.3452   O.3       1 RES1   7.4220
    20 O       94.6934  99.2819  79.3442   O.3       1 RES1   4.4900
    21 P       94.0884 100.5579  78.5912   P.3       1 RES1  14.0790
    22 O       93.5684 100.1779  77.2476   O.2       1 RES1   7.8700
    23 O       95.2355 101.6593  78.4163   O.3       1 RES1  11.0610
    24 O       92.9060 101.1710  79.4795   O.3       1 RES1   3.8620
    25 P       92.4459 100.1461  80.6211   P.3       1 RES1   3.8670
    26 O       91.3330 100.7266  81.4237   O.2       1 RES1   0.0000
    27 O       91.9424  98.7918  79.9341   O.3       1 RES1   1.7630
    28 O       93.6797  99.8165  81.5850   O.3       1 RES1   0.0000
    29 O      100.1641  95.8072  81.1557   O.3       1 RES1  16.7900
    30 O      102.4320  96.7678  80.3906   O.3       1 RES1  26.2200
    31 N      104.9962 103.6634  80.8589   N.pl3     1 RES1  40.3360
    32 H1     104.9541 101.1817  77.1529   H         1 RES1   0.0000
    33 H2     101.3448 100.4273  82.5450   H         1 RES1   0.0000
    34 H3     101.7293  98.7414  79.1024   H         1 RES1   0.0000
    35 H4     102.0912  98.0394  82.0171   H         1 RES1   0.0000
    36 H5      99.8559  97.5656  82.2590   H         1 RES1   0.0000
    37 H6      99.5679  97.4485  79.2009   H         1 RES1   0.0000
    38 H7      97.7731  98.2735  81.5607   H         1 RES1   0.0000
    39 H8      97.4059  97.0916  80.2658   H         1 RES1   0.0000
    40 H9      95.7209  97.1233  77.4447   H         1 RES1   0.0000
    41 H10     95.4498 102.0304  79.2642   H         1 RES1   0.0000
    42 H11     92.5122  98.0761  80.1897   H         1 RES1   0.0000
    43 H12     94.1533  99.0651  81.2479   H         1 RES1   0.0000
    44 H13    100.2338  95.5404  80.2465   H         1 RES1   0.0000
    45 H14    101.8864  96.2012  79.8574   H         1 RES1   0.0000
    46 H15    105.7279 104.2831  80.4816   H         1 RES1   0.0000
    47 H16    104.6169 103.8310  81.8018   H         1 RES1   0.0000
    48 ****   105.7133 102.9752  78.4991   Du        1 RES1  26.6380
    49 ****   103.2757  99.7352  78.0512   Du        1 RES1  23.0220
    50 ****   102.9974 102.3893  82.5354   Du        1 RES1  32.3700
    51 ****    99.7894  99.7341  81.0014   Du        1 RES1  22.7010
    52 ****    99.7501  99.7573  79.3691   Du        1 RES1  23.6460
    53 ****    97.0090  99.2580  76.7886   Du        1 RES1  22.2650
    54 ****    95.7635 100.3762  77.2341   Du        1 RES1  20.8800
    55 ****    95.3485  96.7884  78.9562   Du        1 RES1  20.8900
    56 ****    96.9058  96.8273  78.4664   Du        1 RES1  20.8900
    57 ****    93.1650  99.2741  77.1048   Du        1 RES1   3.2480
    58 ****    93.6227 100.8267  76.4885   Du        1 RES1   6.6730
    59 ****    94.9122 102.3837  77.8074   Du        1 RES1  13.5960
    60 ****    96.0502 101.2327  78.0235   Du        1 RES1  21.1340
    61 ****    91.4084 101.6565  81.7838   Du        1 RES1   0.0000
    62 ****    90.5106 100.1864  81.6023   Du        1 RES1   0.0000
    63 ****    91.9626  98.8951  78.9396   Du        1 RES1   1.0230
    64 ****    91.0075  98.5956  80.2299   Du        1 RES1   2.8320
    65 ****    93.3400  99.6119  82.5031   Du        1 RES1  13.7290
    66 ****    94.2920 100.6062  81.6245   Du        1 RES1  17.5770
    67 ****    99.2971  95.4771  81.5290   Du        1 RES1  20.4810
    68 ****   100.9223  95.4105  81.6731   Du        1 RES1  20.3500
    69 ****   102.9018  96.2158  81.0795   Du        1 RES1  21.5880
    70 ****   103.1075  97.2166  79.8056   Du        1 RES1  21.5880
@<TRIPOS>BOND
     1     1     2   ar
     2     2     3   ar
     3     3     4   ar
     4     4     5   ar
     5     5     6   ar
     6     1     6   ar
     7     5     7   ar
     8     7     8   ar
     9     8     9   ar
    10     4     9   ar
    11     7    10    1
    12    10    11    1
    13    11    12    1
    14    12    13    1
    15    13    14    1
    16    10    14    1
    17    13    15    1
    18    15    16    1
    19    16    17    1
    20    17    18    2
    21    17    19    1
    22    17    20    1
    23    20    21    1
    24    21    22    2
    25    21    23    1
    26    21    24    1
    27    24    25    1
    28    25    26    2
    29    25    27    1
    30    25    28    1
    31    12    29    1
    32    11    30    1
    33     3    31    1
    34     1    32    1
    35     8    33    1
    36    10    34    1
    37    11    35    1
    38    12    36    1
    39    13    37    1
    40    15    38    1
    41    15    39    1
    42    19    40    1
    43    23    41    1
    44    27    42    1
    45    28    43    1
    46    29    44    1
    47    30    45    1
    48    31    46    1
    49    31    47    1
    50     2    48    1
    51     6    49    1
    52     9    50    1
    53    14    51    1
    54    14    52    1
    55    18    53    1
    56    18    54    1
    57    19    55    1
    58    19    56    1
    59    22    57    1
    60    22    58    1
    61    23    59    1
    62    23    60    1
    63    26    61    1
    64    26    62    1
    65    27    63    1
    66    27    64    1
    67    28    65    1
    68    28    66    1
    69    29    67    1
    70    29    68    1
    71    30    69    1
    72    30    70    1
@<TRIPOS>SUBSTRUCTURE
     1 RES1        1 GROUP             0 ****  ****    0  
@<TRIPOS>MOLECULE
13.1060212673
    70    72     1     0     0
SMALL
USER_CHARGES
****
Generated from the CSD

@<TRIPOS>ATOM
     1 C       94.1000 102.2213  77.0521   C.ar      1 RES1  12.8620
     2 N       93.5900 102.0375  75.8126   N.ar      1 RES1   3.8060
     3 C       93.8965 100.9490  75.0757   C.ar      1 RES1   1.3030
     4 C       94.7673 100.0230  75.6432   C.ar      1 RES1  10.0790
     5 C       95.2808 100.2390  76.9123   C.ar      1 RES1  18.7660
     6 N       94.9390 101.3286  77.6201   N.ar      1 RES1  20.8150
     7 N       96.0910  99.2003  77.1827   N.ar      1 RES1  20.8800
     8 C       96.0744  98.3449  76.1392   C.ar      1 RES1  13.6350
     9 N       95.2651  98.8581  75.1896   N.ar      1 RES1   7.3980
    10 C       96.7816  99.0295  78.3475   C.3       1 RES1  22.2650
    11 C       97.5531  97.6901  78.4214   C.3       1 RES1  20.8900
    12 C       98.9554  98.0927  78.9240   C.3       1 RES1  20.0310
    13 C       98.7298  99.5199  79.4589   C.3       1 RES1  22.8670
    14 O       97.8041 100.0217  78.4920   O.3       1 RES1  22.7610
    15 C      100.0249 100.3586  79.4997   C.3       1 RES1  23.6460
    16 O      101.1614  99.5320  79.7783   O.3       1 RES1  15.9680
    17 P      101.5472  99.0198  81.2452   P.3       1 RES1  25.7650
    18 O      100.3010  98.7134  82.0025   O.2       1 RES1  21.8730
    19 O      102.4300  97.6899  81.1373   O.3       1 RES1  23.6200
    20 O      102.3584 100.1626  82.0172   O.3       1 RES1  25.9170
    21 P      103.9032 100.1881  81.6000   P.3       1 RES1  31.9470
    22 O      104.5514  98.8812  81.9036   O.2       1 RES1  30.7470
    23 O      104.6501 101.3446  82.4150   O.3       1 RES1   0.0000
    24 O      104.0115 100.4989  80.0333   O.3       1 RES1  37.8750
    25 P      104.1720 102.0694  79.7626   P.3       1 RES1  32.3700
    26 O      105.6120 102.4519  79.7570   O.2       1 RES1  29.2050
    27 O      103.5333 102.4212  78.3386   O.3       1 RES1  33.4300
    28 O      103.4072 102.8976  80.8981   O.3       1 RES1  25.7040
    29 O       99.4260  97.1911  79.9332   O.3       1 RES1  27.8160
    30 O       96.9404  96.8025  79.3654   O.3       1 RES1  11.7420
    31 N       93.3831 100.7626  73.8408   N.pl3     1 RES1   0.0000
    32 H1      93.8272 103.1121  77.6061   H         1 RES1   0.0000
    33 H2      96.6125  97.4071  76.0679   H         1 RES1   0.0000
    34 H3      96.0981  99.1076  79.2068   H         1 RES1   0.0000
    35 H4      97.6383  97.2083  77.4348   H         1 RES1   0.0000
    36 H5      99.6472  98.1266  78.0677   H         1 RES1   0.0000
    37 H6      98.2575  99.4792  80.4525   H         1 RES1   0.0000
    38 H7      99.9335 101.1303  80.2776   H         1 RES1   0.0000
    39 H8     100.1857 100.8462  78.5271   H         1 RES1   0.0000
    40 H9     101.9218  97.0055  80.7182   H         1 RES1   0.0000
    41 H10    105.5397 101.0724  82.6071   H         1 RES1   0.0000
    42 H11    104.2111 102.3997  77.6734   H         1 RES1   0.0000
    43 H12    103.9188 102.8847  81.6985   H         1 RES1   0.0000
    44 H13     99.9829  96.5217  79.5532   H         1 RES1   0.0000
    45 H14     97.5009  96.6709  80.1213   H         1 RES1   0.0000
    46 H15     92.7402 101.4590  73.4368   H         1 RES1   0.0000
    47 H16     93.6348  99.9218  73.3015   H         1 RES1   0.0000
    48 ****    92.9708 102.7249  75.4331   Du        1 RES1   0.2880
    49 ****    95.2962 101.4746  78.5426   Du        1 RES1  21.1340
    50 ****    95.0688  98.4438  74.3009   Du        1 RES1   2.7410
    51 ****    98.2659 100.1706  77.6176   Du        1 RES1  22.8670
    52 ****    97.4066 100.8825  78.8098   Du        1 RES1  22.7610
    53 ****    99.6181  99.4285  82.1518   Du        1 RES1  21.5210
    54 ****   100.1476  97.7928  82.3614   Du        1 RES1  21.3640
    55 ****   102.6979  97.3925  82.0537   Du        1 RES1  22.3720
    56 ****   103.2490  97.8766  80.5947   Du        1 RES1  25.4590
    57 ****   105.5412  98.7789  81.8041   Du        1 RES1  30.7470
    58 ****   103.9966  98.1064  82.2068   Du        1 RES1  25.4590
    59 ****   104.1623 101.5179  83.2706   Du        1 RES1  30.7470
    60 ****   104.6683 102.1806  81.8666   Du        1 RES1  32.3700
    61 ****   105.9206 103.2296  79.2094   Du        1 RES1  26.6280
    62 ****   106.2698 101.9309  80.3009   Du        1 RES1  30.7470
    63 ****   103.1276 103.3346  78.3717   Du        1 RES1  31.1390
    64 ****   102.8261 101.7502  78.1156   Du        1 RES1  30.6300
    65 ****   102.5129 102.4835  81.0674   Du        1 RES1  32.3700
    66 ****   103.2850 103.8430  80.5959   Du        1 RES1  30.9350
    67 ****    98.6420  96.7542  80.3742   Du        1 RES1  22.1840
    68 ****    99.9480  97.7046  80.6142   Du        1 RES1  20.9800
    69 ****    96.7732  95.9206  78.9245   Du        1 RES1  20.8900
    70 ****    96.0713  97.1946  79.6668   Du        1 RES1  20.8900
@<TRIPOS>BOND
     1     1     2   ar
     2     2     3   ar
     3     3     4   ar
     4     4     5   ar
     5     5     6   ar
     6     1     6   ar
     7     5     7   ar
     8     7     8   ar
     9     8     9   ar
    10     4     9   ar
    11     7    10    1
    12    10    11    1
    13    11    12    1
    14    12    13    1
    15    13    14    1
    16    10    14    1
    17    13    15    1
    18    15    16    1
    19    16    17    1
    20    17    18    2
    21    17    19    1
    22    17    20    1
    23    20    21    1
    24    21    22    2
    25    21    23    1
    26    21    24    1
    27    24    25    1
    28    25    26    2
    29    25    27    1
    30    25    28    1
    31    12    29    1
    32    11    30    1
    33     3    31    1
    34     1    32    1
    35     8    33    1
    36    10    34    1
    37    11    35    1
    38    12    36    1
    39    13    37    1
    40    15    38    1
    41    15    39    1
    42    19    40    1
    43    23    41    1
    44    27    42    1
    45    28    43    1
    46    29    44    1
    47    30    45    1
    48    31    46    1
    49    31    47    1
    50     2    48    1
    51     6    49    1
    52     9    50    1
    53    14    51    1
    54    14    52    1
    55    18    53    1
    56    18    54    1
    57    19    55    1
    58    19    56    1
    59    22    57    1
    60    22    58    1
    61    23    59    1
    62    23    60    1
    63    26    61    1
    64    26    62    1
    65    27    63    1
    66    27    64    1
    67    28    65    1
    68    28    66    1
    69    29    67    1
    70    29    68    1
    71    30    69    1
    72    30    70    1
@<TRIPOS>SUBSTRUCTURE
     1 RES1        1 GROUP             0 ****  ****    0  
@<TRIPOS>MOLECULE
12.8410424222
    70    72     1     0     0
SMALL
USER_CHARGES
****
Generated from the CSD

@<TRIPOS>ATOM
     1 C       92.1847  96.3641  78.6323   C.ar      1 RES1  12.4230
     2 N       91.8788  95.8051  77.4389   N.ar      1 RES1  10.6710
     3 C       92.7659  95.7783  76.4220   C.ar      1 RES1   2.3260
     4 C       94.0110  96.3575  76.6506   C.ar      1 RES1   3.6840
     5 C       94.2961  96.9295  77.8803   C.ar      1 RES1  17.2850
     6 N       93.3904  96.9223  78.8727   N.ar      1 RES1  17.3750
     7 N       95.5478  97.4143  77.7995   N.ar      1 RES1  19.5620
     8 C       96.0489  97.1398  76.5771   C.ar      1 RES1   9.8270
     9 N       95.0975  96.4964  75.8692   N.ar      1 RES1   4.9860
    10 C       96.2096  98.0444  78.8134   C.3       1 RES1  20.8900
    11 C       95.6557  97.7095  80.2191   C.3       1 RES1  20.8900
    12 C       96.9156  97.3994  81.0542   C.3       1 RES1  22.2910
    13 C       98.0520  97.9654  80.1811   C.3       1 RES1  20.9800
    14 O       97.5776  97.6255  78.8761   O.3       1 RES1  20.8900
    15 C       99.4201  97.3161  80.4793   C.3       1 RES1  20.9800
    16 O      100.1665  98.1023  81.4160   O.3       1 RES1  25.9170
    17 P      101.7572  98.0175  81.5762   P.3       1 RES1  25.4590
    18 O      102.0898  97.0986  82.7009   O.2       1 RES1  20.5660
    19 O      102.4051  97.4465  80.2295   O.3       1 RES1  26.2200
    20 O      102.3427  99.4709  81.9002   O.3       1 RES1  25.9170
    21 P      102.4642 100.3757  80.5857   P.3       1 RES1  32.3700
    22 O      101.9026 101.7343  80.8288   O.2       1 RES1  32.3700
    23 O      101.6568  99.6814  79.3917   O.3       1 RES1  27.8160
    24 O      104.0078 100.4896  80.1763   O.3       1 RES1  37.8750
    25 P      104.4084 102.0028  79.8371   P.3       1 RES1  32.3700
    26 O      105.8570 102.0945  79.5007   O.2       1 RES1  26.6280
    27 O      103.5491 102.5013  78.5831   O.3       1 RES1  33.4300
    28 O      104.0947 102.9428  81.0933   O.3       1 RES1  25.7040
    29 O       96.8498  98.0163  82.3456   O.3       1 RES1   0.0000
    30 O       94.9740  98.8393  80.7787   O.3       1 RES1   5.8270
    31 N       92.4628  95.2153  75.2327   N.pl3     1 RES1   0.0000
    32 H1      91.4393  96.3642  79.4192   H         1 RES1   0.0000
    33 H2      97.0409  97.3874  76.2183   H         1 RES1   0.0000
    34 H3      96.1868  99.1341  78.6596   H         1 RES1   0.0000
    35 H4      94.9964  96.8276  80.2031   H         1 RES1   0.0000
    36 H5      97.0285  96.3073  81.1409   H         1 RES1   0.0000
    37 H6      98.1041  99.0594  80.2940   H         1 RES1   0.0000
    38 H7      99.9896  97.2228  79.5433   H         1 RES1   0.0000
    39 H8      99.2732  96.3156  80.9116   H         1 RES1   0.0000
    40 H9     101.8727  96.7322  79.8999   H         1 RES1   0.0000
    41 H10    100.9136  99.2075  79.7460   H         1 RES1   0.0000
    42 H11    104.0701 102.4268  77.7924   H         1 RES1   0.0000
    43 H12    103.8528 103.8093  80.7882   H         1 RES1   0.0000
    44 H13     96.2604  97.5382  82.9172   H         1 RES1   0.0000
    45 H14     94.1249  98.9605  80.3697   H         1 RES1   0.0000
    46 H15     91.5359  94.7915  75.0817   H         1 RES1   0.0000
    47 H16     93.1602  95.2093  74.4746   H         1 RES1   0.0000
    48 ****    90.9732  95.4018  77.3069   Du        1 RES1   3.9950
    49 ****    93.6035  97.3196  79.7653   Du        1 RES1  16.3630
    50 ****    95.1848  96.1774  74.9254   Du        1 RES1   0.0000
    51 ****    97.6427  96.6380  78.7322   Du        1 RES1  20.8900
    52 ****    98.1156  98.1000  78.1794   Du        1 RES1  20.0310
    53 ****   101.5418  96.2761  82.8534   Du        1 RES1  19.5080
    54 ****   102.8610  97.3043  83.3033   Du        1 RES1  18.2200
    55 ****   103.3289  97.1137  80.4191   Du        1 RES1  21.5880
    56 ****   102.4470  98.1743  79.5450   Du        1 RES1  25.4590
    57 ****   101.3553 101.9100  81.6471   Du        1 RES1  31.8690
    58 ****   102.0730 102.4703  80.1737   Du        1 RES1  32.3700
    59 ****   102.2581  99.0453  78.9082   Du        1 RES1  23.8360
    60 ****   101.3331 100.3824  78.7563   Du        1 RES1  31.5030
    61 ****   106.1573 102.6616  78.7338   Du        1 RES1  24.5750
    62 ****   106.5289 101.5889  80.0419   Du        1 RES1  28.7730
    63 ****   103.2840 103.4559  78.7190   Du        1 RES1  31.1390
    64 ****   102.7283 101.9367  78.4959   Du        1 RES1  31.1390
    65 ****   104.9077 103.0081  81.6720   Du        1 RES1  32.3700
    66 ****   103.3403 102.5527  81.6213   Du        1 RES1  32.3700
    67 ****    96.5194  98.9547  82.2444   Du        1 RES1  22.2910
    68 ****    97.7638  98.0266  82.7512   Du        1 RES1  22.2910
    69 ****    95.5270  99.6598  80.6340   Du        1 RES1  22.2910
    70 ****    94.8467  98.6919  81.7595   Du        1 RES1  20.5070
@<TRIPOS>BOND
     1     1     2   ar
     2     2     3   ar
     3     3     4   ar
     4     4     5   ar
     5     5     6   ar
     6     1     6   ar
     7     5     7   ar
     8     7     8   ar
     9     8     9   ar
    10     4     9   ar
    11     7    10    1
    12    10    11    1
    13    11    12    1
    14    12    13    1
    15    13    14    1
    16    10    14    1
    17    13    15    1
    18    15    16    1
    19    16    17    1
    20    17    18    2
    21    17    19    1
    22    17    20    1
    23    20    21    1
    24    21    22    2
    25    21    23    1
    26    21    24    1
    27    24    25    1
    28    25    26    2
    29    25    27    1
    30    25    28    1
    31    12    29    1
    32    11    30    1
    33     3    31    1
    34     1    32    1
    35     8    33    1
    36    10    34    1
    37    11    35    1
    38    12    36    1
    39    13    37    1
    40    15    38    1
    41    15    39    1
    42    19    40    1
    43    23    41    1
    44    27    42    1
    45    28    43    1
    46    29    44    1
    47    30    45    1
    48    31    46    1
    49    31    47    1
    50     2    48    1
    51     6    49    1
    52     9    50    1
    53    14    51    1
    54    14    52    1
    55    18    53    1
    56    18    54    1
    57    19    55    1
    58    19    56    1
    59    22    57    1
    60    22    58    1
    61    23    59    1
    62    23    60    1
    63    26    61    1
    64    26    62    1
    65    27    63    1
    66    27    64    1
    67    28    65    1
    68    28    66    1
    69    29    67    1
    70    29    68    1
    71    30    69    1
    72    30    70    1
@<TRIPOS>SUBSTRUCTURE
     1 RES1        1 GROUP             0 ****  ****    0  
@<TRIPOS>MOLECULE
12.8394255131
    70    72     1     0     0
SMALL
USER_CHARGES
****
Generated from the CSD

@<TRIPOS>ATOM
     1 C       95.5171 105.4349  74.3761   C.ar      1 RES1   5.2480
     2 N       96.1593 106.3365  73.5984   N.ar      1 RES1   5.5800
     3 C       97.4969 106.5041  73.6666   C.ar      1 RES1   8.4800
     4 C       98.1901 105.7125  74.5780   C.ar      1 RES1  11.8120
     5 C       97.5067 104.8013  75.3677   C.ar      1 RES1  11.9650
     6 N       96.1757 104.6538  75.2588   N.ar      1 RES1  10.7020
     7 N       98.4238 104.2031  76.1484   N.ar      1 RES1  17.5290
     8 C       99.6446 104.6946  75.8504   C.ar      1 RES1  21.1570
     9 N       99.4965 105.6297  74.8891   N.ar      1 RES1  16.7730
    10 C       98.1551 103.2261  77.0628   C.3       1 RES1  21.0040
    11 C       96.8815 102.4079  76.7413   C.3       1 RES1  21.5180
    12 C       97.3219 100.9407  76.9272   C.3       1 RES1  22.7610
    13 C       98.6444 101.0771  77.7059   C.3       1 RES1  22.8670
    14 O       99.1959 102.2427  77.0889   O.3       1 RES1  22.8670
    15 C       99.5683  99.8517  77.5415   C.3       1 RES1  22.8670
    16 O      100.7864 100.0270  78.2751   O.3       1 RES1  23.7970
    17 P      101.0536  99.3843  79.7169   P.3       1 RES1  26.2450
    18 O       99.7635  98.9059  80.2887   O.2       1 RES1  21.5210
    19 O      102.0525  98.1425  79.5770   O.3       1 RES1  27.8160
    20 O      101.6770 100.4903  80.6908   O.3       1 RES1  16.9130
    21 P      102.8408 101.3282  79.9804   P.3       1 RES1  32.3700
    22 O      102.2855 102.5423  79.3185   O.2       1 RES1  32.3700
    23 O      103.5534 100.4116  78.8797   O.3       1 RES1  25.7630
    24 O      103.9195 101.7546  81.0838   O.3       1 RES1  40.3360
    25 P      105.4138 101.5468  80.5457   P.3       1 RES1  30.7470
    26 O      105.6078 102.2691  79.2571   O.2       1 RES1  28.2310
    27 O      106.4424 102.1233  81.6270   O.3       1 RES1   6.9410
    28 O      105.7015  99.9879  80.3288   O.3       1 RES1  22.1700
    29 O       96.3344 100.1866  77.6407   O.3       1 RES1  14.0420
    30 O       95.8324 102.7162  77.6680   O.3       1 RES1  11.0610
    31 N       98.1389 107.3999  72.8864   N.pl3     1 RES1   0.0000
    32 H1      94.4412 105.3366  74.2882   H         1 RES1   0.0000
    33 H2     100.5849 104.3960  76.2983   H         1 RES1   0.0000
    34 H3      98.0661 103.6643  78.0686   H         1 RES1   0.0000
    35 H4      96.5420 102.5635  75.7054   H         1 RES1   0.0000
    36 H5      97.5218 100.4984  75.9386   H         1 RES1   0.0000
    37 H6      98.4366 101.2717  78.7695   H         1 RES1   0.0000
    38 H7      99.7994  99.7115  76.4757   H         1 RES1   0.0000
    39 H8      99.0658  98.9504  77.9217   H         1 RES1   0.0000
    40 H9     101.5525  97.3496  79.4231   H         1 RES1   0.0000
    41 H10    103.9067 100.9617  78.1905   H         1 RES1   0.0000
    42 H11    107.3308 101.9212  81.3582   H         1 RES1   0.0000
    43 H12    105.9695  99.8372  79.4299   H         1 RES1   0.0000
    44 H13     96.3850 100.3631  78.5729   H         1 RES1   0.0000
    45 H14     95.5570 101.9390  78.1402   H         1 RES1   0.0000
    46 H15     97.6091 107.9775  72.2175   H         1 RES1   0.0000
    47 H16     99.1608 107.5059  72.9601   H         1 RES1   0.0000
    48 ****    95.6302 106.8924  72.9573   Du        1 RES1   1.3190
    49 ****    95.6860 103.9835  75.8165   Du        1 RES1   7.6190
    50 ****   100.2317 106.1687  74.4782   Du        1 RES1  13.1490
    51 ****    99.4940 102.0316  76.1581   Du        1 RES1  23.0640
    52 ****    99.9739 102.5784  77.6200   Du        1 RES1  23.8320
    53 ****    99.7564  98.1496  80.9428   Du        1 RES1  21.3640
    54 ****    98.9048  99.3412  80.0183   Du        1 RES1  22.0810
    55 ****   102.5822  98.0443  80.4195   Du        1 RES1  25.4590
    56 ****   102.6736  98.2991  78.8091   Du        1 RES1  23.6460
    57 ****   101.9166 102.4816  78.3911   Du        1 RES1  31.1390
    58 ****   102.2818 103.4177  79.8018   Du        1 RES1  32.3700
    59 ****   102.8852  99.7774  78.4906   Du        1 RES1  28.8240
    60 ****   104.2951  99.8939  79.3063   Du        1 RES1  31.9470
    61 ****   105.6827 103.2663  79.2493   Du        1 RES1  26.6380
    62 ****   105.6632 101.7568  78.4001   Du        1 RES1  26.6380
    63 ****   106.2600 101.7048  82.5167   Du        1 RES1  30.7470
    64 ****   106.3324 103.1148  81.6961   Du        1 RES1  26.6280
    65 ****   104.8706  99.4657  80.5209   Du        1 RES1  30.7470
    66 ****   106.4302  99.6942  80.9476   Du        1 RES1  30.7470
    67 ****    96.4889  99.2114  77.4825   Du        1 RES1  21.9870
    68 ****    95.4257 100.4385  77.3079   Du        1 RES1  21.1340
    69 ****    95.0515 103.0882  77.1663   Du        1 RES1  10.9280
    70 ****    96.1631 103.3965  78.3222   Du        1 RES1  11.6360
@<TRIPOS>BOND
     1     1     2   ar
     2     2     3   ar
     3     3     4   ar
     4     4     5   ar
     5     5     6   ar
     6     1     6   ar
     7     5     7   ar
     8     7     8   ar
     9     8     9   ar
    10     4     9   ar
    11     7    10    1
    12    10    11    1
    13    11    12    1
    14    12    13    1
    15    13    14    1
    16    10    14    1
    17    13    15    1
    18    15    16    1
    19    16    17    1
    20    17    18    2
    21    17    19    1
    22    17    20    1
    23    20    21    1
    24    21    22    2
    25    21    23    1
    26    21    24    1
    27    24    25    1
    28    25    26    2
    29    25    27    1
    30    25    28    1
    31    12    29    1
    32    11    30    1
    33     3    31    1
    34     1    32    1
    35     8    33    1
    36    10    34    1
    37    11    35    1
    38    12    36    1
    39    13    37    1
    40    15    38    1
    41    15    39    1
    42    19    40    1
    43    23    41    1
    44    27    42    1
    45    28    43    1
    46    29    44    1
    47    30    45    1
    48    31    46    1
    49    31    47    1
    50     2    48    1
    51     6    49    1
    52     9    50    1
    53    14    51    1
    54    14    52    1
    55    18    53    1
    56    18    54    1
    57    19    55    1
    58    19    56    1
    59    22    57    1
    60    22    58    1
    61    23    59    1
    62    23    60    1
    63    26    61    1
    64    26    62    1
    65    27    63    1
    66    27    64    1
    67    28    65    1
    68    28    66    1
    69    29    67    1
    70    29    68    1
    71    30    69    1
    72    30    70    1
@<TRIPOS>SUBSTRUCTURE
     1 RES1        1 GROUP             0 ****  ****    0  
@<TRIPOS>MOLECULE
11.9611488631
    70    72     1     0     0
SMALL
USER_CHARGES
****
Generated from the CSD

@<TRIPOS>ATOM
     1 C      103.7574 100.0655  81.6010   C.ar      1 RES1  31.9470
     2 N      104.4336 101.0623  80.9848   N.ar      1 RES1  32.3700
     3 C      104.1080 101.4749  79.7416   C.ar      1 RES1  32.3700
     4 C      103.0480 100.8258  79.1147   C.ar      1 RES1  31.5030
     5 C      102.3766  99.8030  79.7658   C.ar      1 RES1  31.9470
     6 N      102.7219  99.4318  81.0101   N.ar      1 RES1  29.2970
     7 N      101.4280  99.3641  78.9197   N.ar      1 RES1  26.3750
     8 C      101.4763 100.0944  77.7861   C.ar      1 RES1  27.9440
     9 N      102.4801 100.9879  77.9058   N.ar      1 RES1  30.6300
    10 C      100.5374  98.3665  79.1925   C.3       1 RES1  23.6460
    11 C      100.4451  98.0102  80.6957   C.3       1 RES1  21.8730
    12 C       98.9285  97.9518  80.9744   C.3       1 RES1  22.2270
    13 C       98.3235  97.8808  79.5591   C.3       1 RES1  20.8900
    14 O       99.2028  98.7579  78.8511   O.3       1 RES1  22.7610
    15 C       96.8611  98.3712  79.5048   C.3       1 RES1  21.1340
    16 O       96.1115  97.6385  78.5281   O.3       1 RES1   7.1190
    17 P       96.0170  98.0572  76.9858   P.3       1 RES1  18.1980
    18 O       96.7424  99.3423  76.7798   O.2       1 RES1  21.9870
    19 O       96.6935  96.9271  76.0777   O.3       1 RES1   7.4220
    20 O       94.4828  98.2532  76.5755   O.3       1 RES1   0.0000
    21 P       93.9968  97.1486  75.5244   P.3       1 RES1   1.7510
    22 O       94.9112  97.1032  74.3488   O.2       1 RES1   0.7400
    23 O       92.5202  97.5097  75.0255   O.3       1 RES1   0.0000
    24 O       93.9696  95.7211  76.2487   O.3       1 RES1   0.0000
    25 P       92.4821  95.3211  76.6879   P.3       1 RES1   2.3260
    26 O       91.8688  96.4097  77.4994   O.2       1 RES1   9.4500
    27 O       91.5966  95.0858  75.3764   O.3       1 RES1   0.0000
    28 O       92.5135  93.9718  77.5472   O.3       1 RES1  14.5220
    29 O       98.5899  96.8156  81.7788   O.3       1 RES1   7.7890
    30 O      101.0307  96.7271  80.9504   O.3       1 RES1  23.6200
    31 N      104.7790 102.4736  79.1286   N.pl3     1 RES1  40.3360
    32 H1     104.0561  99.7664  82.5990   H         1 RES1   0.0000
    33 H2     100.8262  99.9897  76.9256   H         1 RES1   0.0000
    34 H3     100.7927  97.4641  78.6161   H         1 RES1   0.0000
    35 H4     100.9083  98.7810  81.3313   H         1 RES1   0.0000
    36 H5      98.6168  98.8897  81.4603   H         1 RES1   0.0000
    37 H6      98.4088  96.8566  79.1643   H         1 RES1   0.0000
    38 H7      96.8458  99.4410  79.2515   H         1 RES1   0.0000
    39 H8      96.3815  98.2270  80.4839   H         1 RES1   0.0000
    40 H9      97.6345  97.0556  76.0608   H         1 RES1   0.0000
    41 H10     92.4680  98.4397  74.8387   H         1 RES1   0.0000
    42 H11     91.4767  94.1537  75.2382   H         1 RES1   0.0000
    43 H12     91.6406  93.5985  77.5830   H         1 RES1   0.0000
    44 H13     98.3611  97.0841  82.6610   H         1 RES1   0.0000
    45 H14    100.9891  96.1753  80.1779   H         1 RES1   0.0000
    46 H15    105.5613 102.9424  79.6082   H         1 RES1   0.0000
    47 H16    104.5080 102.7675  78.1793   H         1 RES1   0.0000
    48 ****   105.1931 101.5042  81.4621   Du        1 RES1  32.3700
    49 ****   102.2254  98.7057  81.4857   Du        1 RES1  25.8020
    50 ****   102.7548 101.6562  77.2145   Du        1 RES1  25.4070
    51 ****    99.0403  99.7053  79.1271   Du        1 RES1  22.8670
    52 ****    99.0588  98.6685  77.8656   Du        1 RES1  21.0590
    53 ****    96.7143 100.0508  77.4849   Du        1 RES1  21.9870
    54 ****    97.2573  99.4962  75.9365   Du        1 RES1  19.9340
    55 ****    96.3323  96.9867  75.1471   Du        1 RES1   3.1480
    56 ****    96.4870  96.0257  76.4583   Du        1 RES1   8.3010
    57 ****    94.5469  96.9017  73.4395   Du        1 RES1   0.0000
    58 ****    95.8891  97.2744  74.4690   Du        1 RES1   2.1790
    59 ****    91.8604  97.2755  75.7396   Du        1 RES1   0.0000
    60 ****    92.3122  96.9909  74.1964   Du        1 RES1   0.0000
    61 ****    91.9590  96.4024  78.4953   Du        1 RES1  12.4230
    62 ****    91.3669  97.1476  77.0482   Du        1 RES1   0.7120
    63 ****    92.0610  95.4830  74.5849   Du        1 RES1   0.0000
    64 ****    90.7048  95.5228  75.4936   Du        1 RES1   0.0000
    65 ****    92.8275  94.1745  78.4747   Du        1 RES1  18.5870
    66 ****    93.1380  93.3185  77.1192   Du        1 RES1   6.2470
    67 ****    99.3737  96.1957  81.8174   Du        1 RES1  20.9800
    68 ****    97.8108  96.3427  81.3673   Du        1 RES1  20.9800
    69 ****   100.5345  96.2833  81.6966   Du        1 RES1  20.9800
    70 ****   101.9876  96.8504  81.2133   Du        1 RES1  21.5880
@<TRIPOS>BOND
     1     1     2   ar
     2     2     3   ar
     3     3     4   ar
     4     4     5   ar
     5     5     6   ar
     6     1     6   ar
     7     5     7   ar
     8     7     8   ar
     9     8     9   ar
    10     4     9   ar
    11     7    10    1
    12    10    11    1
    13    11    12    1
    14    12    13    1
    15    13    14    1
    16    10    14    1
    17    13    15    1
    18    15    16    1
    19    16    17    1
    20    17    18    2
    21    17    19    1
    22    17    20    1
    23    20    21    1
    24    21    22    2
    25    21    23    1
    26    21    24    1
    27    24    25    1
    28    25    26    2
    29    25    27    1
    30    25    28    1
    31    12    29    1
    32    11    30    1
    33     3    31    1
    34     1    32    1
    35     8    33    1
    36    10    34    1
    37    11    35    1
    38    12    36    1
    39    13    37    1
    40    15    38    1
    41    15    39    1
    42    19    40    1
    43    23    41    1
    44    27    42    1
    45    28    43    1
    46    29    44    1
    47    30    45    1
    48    31    46    1
    49    31    47    1
    50     2    48    1
    51     6    49    1
    52     9    50    1
    53    14    51    1
    54    14    52    1
    55    18    53    1
    56    18    54    1
    57    19    55    1
    58    19    56    1
    59    22    57    1
    60    22    58    1
    61    23    59    1
    62    23    60    1
    63    26    61    1
    64    26    62    1
    65    27    63    1
    66    27    64    1
    67    28    65    1
    68    28    66    1
    69    29    67    1
    70    29    68    1
    71    30    69    1
    72    30    70    1
@<TRIPOS>SUBSTRUCTURE
     1 RES1        1 GROUP             0 ****  ****    0  
@<TRIPOS>MOLECULE
11.9588935699
    70    72     1     0     0
SMALL
USER_CHARGES
****
Generated from the CSD

@<TRIPOS>ATOM
     1 C       92.5968 100.2750  77.6975   C.ar      1 RES1   0.2560
     2 N       91.8201 101.0039  78.5316   N.ar      1 RES1   0.0000
     3 C       91.9154 100.8840  79.8726   C.ar      1 RES1   0.0000
     4 C       92.8448  99.9714  80.3638   C.ar      1 RES1   6.2900
     5 C       93.6232  99.2323  79.4871   C.ar      1 RES1  13.1850
     6 N       93.5087  99.3920  78.1580   N.ar      1 RES1   7.8700
     7 N       94.4034  98.4370  80.2402   N.ar      1 RES1  18.9800
     8 C       94.1507  98.6779  81.5436   C.ar      1 RES1  15.8540
     9 N       93.1848  99.6171  81.6165   N.ar      1 RES1  10.3460
    10 C       95.3290  97.5605  79.7524   C.3       1 RES1  20.8900
    11 C       95.7814  97.8758  78.3065   C.3       1 RES1  20.8900
    12 C       97.3200  97.7740  78.3646   C.3       1 RES1  20.8900
    13 C       97.5635  97.0358  79.6949   C.3       1 RES1  20.8900
    14 O       96.5428  97.6163  80.5104   O.3       1 RES1  22.2910
    15 C       98.9714  97.2891  80.2744   C.3       1 RES1  21.1430
    16 O       99.7760  98.0377  79.3553   O.3       1 RES1  14.5610
    17 P      100.6190  99.3349  79.7675   P.3       1 RES1  24.9120
    18 O      100.4868 100.3666  78.7006   O.2       1 RES1  23.6460
    19 O      100.0541  99.9314  81.1403   O.3       1 RES1  21.7600
    20 O      102.1625  98.9443  79.9263   O.3       1 RES1  18.7540
    21 P      102.9581  99.9975  80.8313   P.3       1 RES1  31.9470
    22 O      103.1830  99.4510  82.1992   O.2       1 RES1  30.2670
    23 O      102.1065 101.3475  80.9404   O.3       1 RES1  25.7040
    24 O      104.3634 100.3205  80.1359   O.3       1 RES1  37.8750
    25 P      104.5507 101.8949  79.9089   P.3       1 RES1  32.3700
    26 O      105.9518 102.1990  79.5035   O.2       1 RES1  26.6280
    27 O      103.5566 102.3769  78.7518   O.3       1 RES1  33.4300
    28 O      104.2054 102.6834  81.2576   O.3       1 RES1  15.9460
    29 O       97.8382  97.0629  77.2339   O.3       1 RES1  19.4420
    30 O       95.2691  96.9000  77.3900   O.3       1 RES1   3.5760
    31 N       91.1442 101.6155  80.7054   N.pl3     1 RES1   1.4750
    32 H1      92.4836 100.4034  76.6272   H         1 RES1   0.0000
    33 H2      94.6346  98.2058  82.3904   H         1 RES1   0.0000
    34 H3      94.9374  96.5328  79.7991   H         1 RES1   0.0000
    35 H4      95.4896  98.8910  77.9953   H         1 RES1   0.0000
    36 H5      97.7444  98.7884  78.4246   H         1 RES1   0.0000
    37 H6      97.3804  95.9578  79.5662   H         1 RES1   0.0000
    38 H7      99.4564  96.3250  80.4850   H         1 RES1   0.0000
    39 H8      98.8936  97.8637  81.2088   H         1 RES1   0.0000
    40 H9      99.6251 100.7620  80.9719   H         1 RES1   0.0000
    41 H10    101.5815 101.4547  80.1560   H         1 RES1   0.0000
    42 H11    104.0360 102.8989  78.1193   H         1 RES1   0.0000
    43 H12    103.2627 102.7267  81.3668   H         1 RES1   0.0000
    44 H13     98.5542  96.4946  77.4931   H         1 RES1   0.0000
    45 H14     95.0002  97.3078  76.5749   H         1 RES1   0.0000
    46 H15     90.4614 102.2861  80.3237   H         1 RES1   0.0000
    47 H16     91.2391 101.5030  81.7249   H         1 RES1   0.0000
    48 ****    91.1592 101.6472  78.1452   Du        1 RES1   0.0000
    49 ****    94.0832  98.8710  77.5268   Du        1 RES1  14.0790
    50 ****    92.7894  99.9865  82.4574   Du        1 RES1   6.2900
    51 ****    96.7717  98.5657  80.7252   Du        1 RES1  22.2910
    52 ****    96.4432  97.0972  81.3593   Du        1 RES1  22.2270
    53 ****   100.1734 101.2877  78.9318   Du        1 RES1  23.8320
    54 ****   100.7113 100.1380  77.7534   Du        1 RES1  23.6460
    55 ****   100.8105 100.0705  81.7795   Du        1 RES1  27.9720
    56 ****    99.3964  99.2908  81.5365   Du        1 RES1  21.5210
    57 ****   103.1116 100.0516  82.9955   Du        1 RES1  30.3250
    58 ****   103.4053  98.4836  82.3208   Du        1 RES1  27.8300
    59 ****   102.7267 102.1262  81.0355   Du        1 RES1  32.3700
    60 ****   101.5066 101.2997  81.7391   Du        1 RES1  31.8690
    61 ****   106.5245 101.4815  79.1071   Du        1 RES1  26.6280
    62 ****   106.3195 103.1206  79.6279   Du        1 RES1  26.6280
    63 ****   102.8230 102.9273  79.1505   Du        1 RES1  31.5030
    64 ****   103.1639 101.5783  78.2957   Du        1 RES1  31.1390
    65 ****   104.5779 103.6101  81.2066   Du        1 RES1  32.3700
    66 ****   104.6095 102.2041  82.0367   Du        1 RES1  32.3700
    67 ****    98.1696  97.7200  76.5568   Du        1 RES1  13.6510
    68 ****    97.1089  96.5092  76.8320   Du        1 RES1  13.4090
    69 ****    94.4808  96.4446  77.8037   Du        1 RES1  17.8100
    70 ****    95.9816  96.2250  77.1987   Du        1 RES1  11.4980
@<TRIPOS>BOND
     1     1     2   ar
     2     2     3   ar
     3     3     4   ar
     4     4     5   ar
     5     5     6   ar
     6     1     6   ar
     7     5     7   ar
     8     7     8   ar
     9     8     9   ar
    10     4     9   ar
    11     7    10    1
    12    10    11    1
    13    11    12    1
    14    12    13    1
    15    13    14    1
    16    10    14    1
    17    13    15    1
    18    15    16    1
    19    16    17    1
    20    17    18    2
    21    17    19    1
    22    17    20    1
    23    20    21    1
    24    21    22    2
    25    21    23    1
    26    21    24    1
    27    24    25    1
    28    25    26    2
    29    25    27    1
    30    25    28    1
    31    12    29    1
    32    11    30    1
    33     3    31    1
    34     1    32    1
    35     8    33    1
    36    10    34    1
    37    11    35    1
    38    12    36    1
    39    13    37    1
    40    15    38    1
    41    15    39    1
    42    19    40    1
    43    23    41    1
    44    27    42    1
    45    28    43    1
    46    29    44    1
    47    30    45    1
    48    31    46    1
    49    31    47    1
    50     2    48    1
    51     6    49    1
    52     9    50    1
    53    14    51    1
    54    14    52    1
    55    18    53    1
    56    18    54    1
    57    19    55    1
    58    19    56    1
    59    22    57    1
    60    22    58    1
    61    23    59    1
    62    23    60    1
    63    26    61    1
    64    26    62    1
    65    27    63    1
    66    27    64    1
    67    28    65    1
    68    28    66    1
    69    29    67    1
    70    29    68    1
    71    30    69    1
    72    30    70    1
@<TRIPOS>SUBSTRUCTURE
     1 RES1        1 GROUP             0 ****  ****    0  
@<TRIPOS>MOLECULE
11.6164680745
    70    72     1     0     0
SMALL
USER_CHARGES
****
Generated from the CSD

@<TRIPOS>ATOM
     1 C       92.9463 100.0672  75.0675   C.ar      1 RES1   0.0000
     2 N       92.9033 101.1268  74.2275   N.ar      1 RES1   0.0000
     3 C       93.8567 102.0820  74.2442   C.ar      1 RES1   0.0000
     4 C       94.8866 101.9347  75.1692   C.ar      1 RES1   6.3480
     5 C       94.9030 100.8430  76.0229   C.ar      1 RES1  12.6730
     6 N       93.9425  99.9053  75.9644   N.ar      1 RES1   6.9560
     7 N       95.9915 100.9778  76.8009   N.ar      1 RES1  20.8800
     8 C       96.6553 102.0959  76.4404   C.ar      1 RES1  20.4940
     9 N       95.9682 102.6873  75.4412   N.ar      1 RES1  12.0260
    10 C       96.3753 100.0953  77.7688   C.3       1 RES1  21.9870
    11 C       96.4383  98.6278  77.2817   C.3       1 RES1  21.1340
    12 C       97.7940  98.1152  77.8110   C.3       1 RES1  20.0310
    13 C       98.1753  99.1778  78.8595   C.3       1 RES1  22.7610
    14 O       97.7093 100.3654  78.2144   O.3       1 RES1  22.7610
    15 C       99.6931  99.2344  79.1342   C.3       1 RES1  22.7610
    16 O       99.9823  98.8644  80.4878   O.3       1 RES1  18.5310
    17 P      101.4330  98.9952  81.1523   P.3       1 RES1  25.7650
    18 O      101.2842  99.3498  82.5918   O.2       1 RES1  29.2970
    19 O      102.2063  97.5993  81.0381   O.3       1 RES1  23.6200
    20 O      102.2599 100.1491  80.4140   O.3       1 RES1  16.9130
    21 P      103.7057 100.3624  81.0662   P.3       1 RES1  32.3700
    22 O      103.9988  99.2893  82.0576   O.2       1 RES1  30.7470
    23 O      103.7469 101.7817  81.8034   O.3       1 RES1   6.2260
    24 O      104.8060 100.3450  79.9034   O.3       1 RES1  37.8750
    25 P      105.8464 101.5513  80.0704   P.3       1 RES1  28.7730
    26 O      107.0330 101.3398  79.1945   O.2       1 RES1  26.6280
    27 O      105.1291 102.9198  79.6558   O.3       1 RES1  30.7720
    28 O      106.3229 101.6510  81.5946   O.3       1 RES1   6.9410
    29 O       97.6718  96.8026  78.3721   O.3       1 RES1  16.0230
    30 O       95.3752  97.8563  77.8553   O.3       1 RES1   4.6810
    31 N       93.8171 103.1368  73.4020   N.pl3     1 RES1   0.0000
    32 H1      92.1570  99.3258  75.0194   H         1 RES1   0.0000
    33 H2      97.5797 102.4620  76.8713   H         1 RES1   0.0000
    34 H3      95.6990 100.1664  78.6344   H         1 RES1   0.0000
    35 H4      96.4197  98.5570  76.1829   H         1 RES1   0.0000
    36 H5      98.5281  98.1295  76.9901   H         1 RES1   0.0000
    37 H6      97.6142  99.0057  79.7910   H         1 RES1   0.0000
    38 H7     100.0583 100.2545  78.9471   H         1 RES1   0.0000
    39 H8     100.2202  98.5362  78.4679   H         1 RES1   0.0000
    40 H9     101.6243  96.9438  80.6722   H         1 RES1   0.0000
    41 H10    103.4895 101.6740  82.7115   H         1 RES1   0.0000
    42 H11    105.0813 102.9781  78.7089   H         1 RES1   0.0000
    43 H12    107.2234 101.9520  81.6260   H         1 RES1   0.0000
    44 H13     98.5041  96.3453  78.3430   H         1 RES1   0.0000
    45 H14     94.5315  98.2553  77.6772   H         1 RES1   0.0000
    46 H15     93.0467 103.2293  72.7241   H         1 RES1   0.0000
    47 H16     94.5590 103.8504  73.4374   H         1 RES1   0.0000
    48 ****    92.1466 101.2043  73.5784   Du        1 RES1   0.0000
    49 ****    93.9649  99.1089  76.5688   Du        1 RES1  10.2690
    50 ****    96.2197 103.5390  74.9816   Du        1 RES1   9.6770
    51 ****    98.2950 100.5865  77.4346   Du        1 RES1  22.8670
    52 ****    97.7092 101.1302  78.8586   Du        1 RES1  22.7610
    53 ****   100.7081  98.7903  83.1876   Du        1 RES1  21.7380
    54 ****   101.7605 100.1474  82.9620   Du        1 RES1  30.3250
    55 ****   102.5060  97.3089  81.9469   Du        1 RES1  22.3720
    56 ****   103.0028  97.7072  80.4431   Du        1 RES1  22.3720
    57 ****   104.7645  98.6642  81.9061   Du        1 RES1  27.8300
    58 ****   103.4297  99.1942  82.8744   Du        1 RES1  30.7470
    59 ****   103.1157 102.4112  81.3503   Du        1 RES1  32.3700
    60 ****   104.6747 102.1523  81.7616   Du        1 RES1  32.3700
    61 ****   107.6719 100.5956  79.3892   Du        1 RES1  26.6280
    62 ****   107.1904 101.9421  78.4119   Du        1 RES1  24.4000
    63 ****   105.6548 103.6927  80.0112   Du        1 RES1  27.4220
    64 ****   104.2053 102.9411  80.0381   Du        1 RES1  32.3700
    65 ****   106.2573 100.7503  82.0239   Du        1 RES1  30.7470
    66 ****   105.7382 102.2973  82.0849   Du        1 RES1  29.2050
    67 ****    96.9943  96.2844  77.8501   Du        1 RES1  20.0310
    68 ****    97.3725  96.8790  79.3232   Du        1 RES1  20.8900
    69 ****    95.5085  97.8005  78.8449   Du        1 RES1  20.8900
    70 ****    95.3910  96.9360  77.4645   Du        1 RES1  16.3980
@<TRIPOS>BOND
     1     1     2   ar
     2     2     3   ar
     3     3     4   ar
     4     4     5   ar
     5     5     6   ar
     6     1     6   ar
     7     5     7   ar
     8     7     8   ar
     9     8     9   ar
    10     4     9   ar
    11     7    10    1
    12    10    11    1
    13    11    12    1
    14    12    13    1
    15    13    14    1
    16    10    14    1
    17    13    15    1
    18    15    16    1
    19    16    17    1
    20    17    18    2
    21    17    19    1
    22    17    20    1
    23    20    21    1
    24    21    22    2
    25    21    23    1
    26    21    24    1
    27    24    25    1
    28    25    26    2
    29    25    27    1
    30    25    28    1
    31    12    29    1
    32    11    30    1
    33     3    31    1
    34     1    32    1
    35     8    33    1
    36    10    34    1
    37    11    35    1
    38    12    36    1
    39    13    37    1
    40    15    38    1
    41    15    39    1
    42    19    40    1
    43    23    41    1
    44    27    42    1
    45    28    43    1
    46    29    44    1
    47    30    45    1
    48    31    46    1
    49    31    47    1
    50     2    48    1
    51     6    49    1
    52     9    50    1
    53    14    51    1
    54    14    52    1
    55    18    53    1
    56    18    54    1
    57    19    55    1
    58    19    56    1
    59    22    57    1
    60    22    58    1
    61    23    59    1
    62    23    60    1
    63    26    61    1
    64    26    62    1
    65    27    63    1
    66    27    64    1
    67    28    65    1
    68    28    66    1
    69    29    67    1
    70    29    68    1
    71    30    69    1
    72    30    70    1
@<TRIPOS>SUBSTRUCTURE
     1 RES1        1 GROUP             0 ****  ****    0  
@<TRIPOS>MOLECULE
11.5335319651
    70    72     1     0     0
SMALL
USER_CHARGES
****
Generated from the CSD

@<TRIPOS>ATOM
     1 C       91.7129  97.0290  78.8534   C.ar      1 RES1   3.5830
     2 N       91.1121  97.9208  78.0323   N.ar      1 RES1   0.0000
     3 C       91.5067  99.2104  77.9786   C.ar      1 RES1   0.0000
     4 C       92.5570  99.5880  78.8106   C.ar      1 RES1   1.8580
     5 C       93.1504  98.6559  79.6472   C.ar      1 RES1  11.6560
     6 N       92.7381  97.3772  79.6601   N.ar      1 RES1   9.9330
     7 N       94.1087  99.3058  80.3310   N.ar      1 RES1  15.6820
     8 C       94.1417 100.5932  79.9281   C.ar      1 RES1  14.0790
     9 N       93.1797 100.7659  78.9980   N.ar      1 RES1   3.2480
    10 C       94.9371  98.7335  81.2524   C.3       1 RES1  20.5070
    11 C       95.6596  97.4663  80.7357   C.3       1 RES1  22.2910
    12 C       97.1296  97.6755  81.1558   C.3       1 RES1  22.2910
    13 C       97.0302  98.8107  82.1929   C.3       1 RES1  22.2910
    14 O       96.0071  99.6177  81.6048   O.3       1 RES1  22.2910
    15 C       98.3509  99.5923  82.3576   C.3       1 RES1  22.2910
    16 O       99.4555  98.6981  82.5385   O.3       1 RES1  25.9170
    17 P      100.7485  98.6835  81.5945   P.3       1 RES1  21.8730
    18 O      101.7959  99.5656  82.1817   O.2       1 RES1  29.2970
    19 O      101.3226  97.1939  81.4892   O.3       1 RES1  18.7820
    20 O      100.3596  99.2316  80.1424   O.3       1 RES1  12.7660
    21 P      101.6492  99.4669  79.2245   P.3       1 RES1  26.3750
    22 O      101.2514  99.9557  77.8742   O.2       1 RES1  27.9440
    23 O      102.4438  98.0871  79.0686   O.3       1 RES1  26.2200
    24 O      102.6009 100.5411  79.9340   O.3       1 RES1  15.9680
    25 P      103.5227 101.2967  78.8640   P.3       1 RES1  31.5030
    26 O      103.8033 100.4095  77.7005   O.2       1 RES1  28.3910
    27 O      102.7594 102.6054  78.3500   O.3       1 RES1  33.4300
    28 O      104.9035 101.7302  79.5461   O.3       1 RES1  30.7720
    29 O       97.6917  96.4756  81.7006   O.3       1 RES1   4.9120
    30 O       95.1405  96.2910  81.3710   O.3       1 RES1  15.9250
    31 N       90.9110 100.0994  77.1550   N.pl3     1 RES1   0.0000
    32 H1      91.3605  96.0040  78.8642   H         1 RES1   0.0000
    33 H2      94.8193 101.3608  80.2827   H         1 RES1   0.0000
    34 H3      94.3740  98.4885  82.1660   H         1 RES1   0.0000
    35 H4      95.5978  97.3743  79.6401   H         1 RES1   0.0000
    36 H5      97.7055  98.0240  80.2842   H         1 RES1   0.0000
    37 H6      96.6891  98.4087  83.1594   H         1 RES1   0.0000
    38 H7      98.2724 100.2587  83.2287   H         1 RES1   0.0000
    39 H8      98.5426 100.1967  81.4591   H         1 RES1   0.0000
    40 H9     101.7567  97.0803  80.6520   H         1 RES1   0.0000
    41 H10    101.8692  97.4321  78.6902   H         1 RES1   0.0000
    42 H11    103.2008 102.9484  77.5820   H         1 RES1   0.0000
    43 H12    105.1701 101.0667  80.1716   H         1 RES1   0.0000
    44 H13     97.1320  95.7295  81.5198   H         1 RES1   0.0000
    45 H14     95.0345  95.5847  80.7443   H         1 RES1   0.0000
    46 H15     90.1347  99.8018  76.5463   H         1 RES1   0.0000
    47 H16     91.2337 101.0774  77.1352   H         1 RES1   0.0000
    48 ****    90.3573  97.6170  77.4510   Du        1 RES1   0.0000
    49 ****    93.1787  96.7015  80.2512   Du        1 RES1  18.5870
    50 ****    92.9661 101.6225  78.5284   Du        1 RES1   3.2480
    51 ****    96.3573 100.0773  80.7886   Du        1 RES1  22.2910
    52 ****    95.6875 100.3012  82.2610   Du        1 RES1  22.2910
    53 ****   101.5452 100.2566  82.8597   Du        1 RES1  30.3250
    54 ****   102.7497  99.4668  81.8977   Du        1 RES1  29.2970
    55 ****   100.5697  96.5403  81.5657   Du        1 RES1  20.9800
    56 ****   101.9774  97.0361  82.2283   Du        1 RES1  21.5880
    57 ****   101.9001  99.9094  77.1146   Du        1 RES1  23.6460
    58 ****   100.3358 100.3300  77.7277   Du        1 RES1  23.6460
    59 ****   102.7552  97.7783  79.9673   Du        1 RES1  25.4590
    60 ****   103.2339  98.2230  78.4708   Du        1 RES1  23.6460
    61 ****   103.1140  99.7525  77.3949   Du        1 RES1  25.8320
    62 ****   104.6809 100.4709  77.2251   Du        1 RES1  23.8240
    63 ****   102.7608 103.2973  79.0721   Du        1 RES1  31.5030
    64 ****   101.8162 102.3706  78.1153   Du        1 RES1  30.6300
    65 ****   104.7825 102.6035  80.0180   Du        1 RES1  32.3700
    66 ****   105.6072 101.8265  78.8422   Du        1 RES1  26.6380
    67 ****    97.7904  96.5794  82.6903   Du        1 RES1  20.9800
    68 ****    98.5903  96.3187  81.2907   Du        1 RES1  20.9800
    69 ****    94.2520  96.5041  81.7773   Du        1 RES1  18.7810
    70 ****    95.7738  95.9999  82.0881   Du        1 RES1  19.8270
@<TRIPOS>BOND
     1     1     2   ar
     2     2     3   ar
     3     3     4   ar
     4     4     5   ar
     5     5     6   ar
     6     1     6   ar
     7     5     7   ar
     8     7     8   ar
     9     8     9   ar
    10     4     9   ar
    11     7    10    1
    12    10    11    1
    13    11    12    1
    14    12    13    1
    15    13    14    1
    16    10    14    1
    17    13    15    1
    18    15    16    1
    19    16    17    1
    20    17    18    2
    21    17    19    1
    22    17    20    1
    23    20    21    1
    24    21    22    2
    25    21    23    1
    26    21    24    1
    27    24    25    1
    28    25    26    2
    29    25    27    1
    30    25    28    1
    31    12    29    1
    32    11    30    1
    33     3    31    1
    34     1    32    1
    35     8    33    1
    36    10    34    1
    37    11    35    1
    38    12    36    1
    39    13    37    1
    40    15    38    1
    41    15    39    1
    42    19    40    1
    43    23    41    1
    44    27    42    1
    45    28    43    1
    46    29    44    1
    47    30    45    1
    48    31    46    1
    49    31    47    1
    50     2    48    1
    51     6    49    1
    52     9    50    1
    53    14    51    1
    54    14    52    1
    55    18    53    1
    56    18    54    1
    57    19    55    1
    58    19    56    1
    59    22    57    1
    60    22    58    1
    61    23    59    1
    62    23    60    1
    63    26    61    1
    64    26    62    1
    65    27    63    1
    66    27    64    1
    67    28    65    1
    68    28    66    1
    69    29    67    1
    70    29    68    1
    71    30    69    1
    72    30    70    1
@<TRIPOS>SUBSTRUCTURE
     1 RES1        1 GROUP             0 ****  ****    0  
@<TRIPOS>MOLECULE
10.9983191795
    70    72     1     0     0
SMALL
USER_CHARGES
****
Generated from the CSD

@<TRIPOS>ATOM
     1 C       94.3173  95.8650  76.4429   C.ar      1 RES1   3.3540
     2 N       93.4094  95.8304  75.4405   N.ar      1 RES1   0.0000
     3 C       93.1144  96.9295  74.7148   C.ar      1 RES1   0.0000
     4 C       93.7807  98.1062  75.0457   C.ar      1 RES1   1.3030
     5 C       94.7012  98.1157  76.0818   C.ar      1 RES1   7.3040
     6 N       94.9781  96.9959  76.7707   N.ar      1 RES1  11.1820
     7 N       95.1625  99.3753  76.1766   N.ar      1 RES1  12.6730
     8 C       94.5790 100.1314  75.2235   C.ar      1 RES1   3.5940
     9 N       93.7226  99.3493  74.5342   N.ar      1 RES1   0.0000
    10 C       96.1022  99.7989  77.0713   C.3       1 RES1  20.8800
    11 C       95.5701  99.9221  78.5193   C.3       1 RES1  21.1340
    12 C       96.6490  99.2263  79.3754   C.3       1 RES1  21.9870
    13 C       97.8464  99.1373  78.4098   C.3       1 RES1  22.7610
    14 O       97.1743  98.8556  77.1799   O.3       1 RES1  22.2650
    15 C       98.8413  98.0191  78.7868   C.3       1 RES1  20.0310
    16 O      100.1829  98.5202  78.8280   O.3       1 RES1  17.3360
    17 P      101.0318  98.6721  80.1768   P.3       1 RES1  24.3780
    18 O      100.2579  99.4864  81.1557   O.2       1 RES1  24.9120
    19 O      101.3080  97.2273  80.8058   O.3       1 RES1  23.6200
    20 O      102.4145  99.4127  79.8608   O.3       1 RES1  15.9680
    21 P      103.2816  99.6551  81.1839   P.3       1 RES1  30.7470
    22 O      103.5852  98.3614  81.8578   O.2       1 RES1  27.8300
    23 O      102.4587 100.5887  82.1893   O.3       1 RES1   3.9760
    24 O      104.6443 100.3930  80.7820   O.3       1 RES1  37.8750
    25 P      104.3555 101.7569  79.9935   P.3       1 RES1  32.3700
    26 O      105.6243 102.5032  79.7629   O.2       1 RES1  29.2050
    27 O      103.6893 101.4115  78.5806   O.3       1 RES1  33.4300
    28 O      103.3486 102.6700  80.8376   O.3       1 RES1  25.7040
    29 O       96.9449  99.9821  80.5560   O.3       1 RES1  10.0410
    30 O       95.4631 101.2981  78.9056   O.3       1 RES1  11.0610
    31 N       92.2125  96.8939  73.7105   N.pl3     1 RES1   0.0000
    32 H1      94.5202  94.9576  77.0000   H         1 RES1   0.0000
    33 H2      94.7609 101.1830  75.0361   H         1 RES1   0.0000
    34 H3      96.5209 100.7649  76.7504   H         1 RES1   0.0000
    35 H4      94.6057  99.4066  78.6494   H         1 RES1   0.0000
    36 H5      96.3058  98.2110  79.6292   H         1 RES1   0.0000
    37 H6      98.3554 100.1117  78.3506   H         1 RES1   0.0000
    38 H7      98.7752  97.2092  78.0460   H         1 RES1   0.0000
    39 H8      98.5945  97.6180  79.7805   H         1 RES1   0.0000
    40 H9     100.9699  96.5580  80.2226   H         1 RES1   0.0000
    41 H10    101.5290 100.4223  82.0863   H         1 RES1   0.0000
    42 H11    104.2397 101.7435  77.8812   H         1 RES1   0.0000
    43 H12    102.8047 102.1177  81.3869   H         1 RES1   0.0000
    44 H13     96.1451 100.2709  80.9799   H         1 RES1   0.0000
    45 H14     95.0042 101.3839  79.7332   H         1 RES1   0.0000
    46 H15     91.7288  96.0138  73.4800   H         1 RES1   0.0000
    47 H16     92.0077  97.7487  73.1735   H         1 RES1   0.0000
    48 ****    92.9455  94.9693  75.2321   Du        1 RES1   0.0000
    49 ****    95.6554  96.9999  77.5065   Du        1 RES1  16.3980
    50 ****    93.1438  99.6431  73.7735   Du        1 RES1   0.0000
    51 ****    96.8131  97.9231  77.1903   Du        1 RES1  18.2300
    52 ****    97.8047  98.9603  76.4108   Du        1 RES1  22.7610
    53 ****   100.7084 100.2227  81.6605   Du        1 RES1  24.9120
    54 ****    99.2879  99.2965  81.3079   Du        1 RES1  21.5210
    55 ****   100.8521  97.1573  81.6931   Du        1 RES1  20.7330
    56 ****   102.2924  97.0986  80.9257   Du        1 RES1  21.5880
    57 ****   103.9262  98.3553  82.7979   Du        1 RES1  27.8300
    58 ****   103.4480  97.4992  81.3701   Du        1 RES1  22.3720
    59 ****   102.6502 101.5487  81.9852   Du        1 RES1  32.3700
    60 ****   102.7312 100.3871  83.1301   Du        1 RES1  30.3250
    61 ****   106.3450 102.1015  79.1979   Du        1 RES1  26.6280
    62 ****   105.7551 103.4057  80.1732   Du        1 RES1  24.6470
    63 ****   102.7862 101.8374  78.5249   Du        1 RES1  31.1390
    64 ****   103.5963 100.4200  78.4895   Du        1 RES1  31.1390
    65 ****   102.7688 103.1925  80.2125   Du        1 RES1  32.3700
    66 ****   103.8716 103.2997  81.4120   Du        1 RES1  32.3700
    67 ****    97.4906 100.7817  80.3055   Du        1 RES1  21.1340
    68 ****    97.4642  99.4095  81.1905   Du        1 RES1  22.2910
    69 ****    94.9613 101.7981  78.1998   Du        1 RES1  18.0780
    70 ****    96.3809 101.6842  78.9989   Du        1 RES1  21.9870
@<TRIPOS>BOND
     1     1     2   ar
     2     2     3   ar
     3     3     4   ar
     4     4     5   ar
     5     5     6   ar
     6     1     6   ar
     7     5     7   ar
     8     7     8   ar
     9     8     9   ar
    10     4     9   ar
    11     7    10    1
    12    10    11    1
    13    11    12    1
    14    12    13    1
    15    13    14    1
    16    10    14    1
    17    13    15    1
    18    15    16    1
    19    16    17    1
    20    17    18    2
    21    17    19    1
    22    17    20    1
    23    20    21    1
    24    21    22    2
    25    21    23    1
    26    21    24    1
    27    24    25    1
    28    25    26    2
    29    25    27    1
    30    25    28    1
    31    12    29    1
    32    11    30    1
    33     3    31    1
    34     1    32    1
    35     8    33    1
    36    10    34    1
    37    11    35    1
    38    12    36    1
    39    13    37    1
    40    15    38    1
    41    15    39    1
    42    19    40    1
    43    23    41    1
    44    27    42    1
    45    28    43    1
    46    29    44    1
    47    30    45    1
    48    31    46    1
    49    31    47    1
    50     2    48    1
    51     6    49    1
    52     9    50    1
    53    14    51    1
    54    14    52    1
    55    18    53    1
    56    18    54    1
    57    19    55    1
    58    19    56    1
    59    22    57    1
    60    22    58    1
    61    23    59    1
    62    23    60    1
    63    26    61    1
    64    26    62    1
    65    27    63    1
    66    27    64    1
    67    28    65    1
    68    28    66    1
    69    29    67    1
    70    29    68    1
    71    30    69    1
    72    30    70    1
@<TRIPOS>SUBSTRUCTURE
     1 RES1        1 GROUP             0 ****  ****    0  
