@<TRIPOS>MOLECULE
ATP|ATP|mol2|1|dock12
    70    72     1     0     0
SMALL
NO_CHARGES
****
Generated from the CSD

@<TRIPOS>ATOM
     1 C      102.8955 100.9994  81.7611   C.ar      1 RES1   0.0000
     2 N      103.7582 101.7562  81.0444   N.ar      1 RES1   0.0000
     3 C      103.7381 101.7683  79.6948   C.ar      1 RES1   0.0000
     4 C      102.7890 100.9659  79.0677   C.ar      1 RES1   0.0000
     5 C      101.9207 100.1982  79.8274   C.ar      1 RES1   0.0000
     6 N      101.9704 100.2130  81.1701   N.ar      1 RES1   0.0000
     7 N      101.1349  99.5372  78.9604   N.ar      1 RES1   0.0000
     8 C      101.4786  99.8757  77.7006   C.ar      1 RES1   0.0000
     9 N      102.5020 100.7525  77.7703   N.ar      1 RES1   0.0000
    10 C      100.1230  98.6984  79.3186   C.3       1 RES1   0.0000
    11 C      100.3974  98.0113  80.6726   C.3       1 RES1   0.0000
    12 C       98.9904  97.7872  81.2706   C.3       1 RES1   0.0000
    13 C       98.0492  98.4439  80.2365   C.3       1 RES1   0.0000
    14 O       98.8953  99.3870  79.5730   O.3       1 RES1   0.0000
    15 C       96.8238  99.1275  80.8788   C.3       1 RES1   0.0000
    16 O       95.7444  99.2083  79.9417   O.3       1 RES1   0.0000
    17 P       94.8382  97.9648  79.5002   P.3       1 RES1   0.0000
    18 O       95.1731  97.5758  78.1014   O.2       1 RES1   0.0000
    19 O       95.1166  96.7265  80.4744   O.3       1 RES1   0.0000
    20 O       93.2943  98.3840  79.5625   O.3       1 RES1   0.0000
    21 P       92.8256  98.6479  81.0708   P.3       1 RES1   0.0000
    22 O       93.5801  99.8089  81.6210   O.2       1 RES1   0.0000
    23 O       93.1365  97.3600  81.9677   O.3       1 RES1   0.0000
    24 O       91.2546  98.9537  81.1178   O.3       1 RES1   0.0000
    25 P       90.4098  97.7449  80.4942   P.3       1 RES1   0.0000
    26 O       88.9577  98.0636  80.5924   O.2       1 RES1   0.0000
    27 O       90.8005  97.5422  78.9558   O.3       1 RES1   0.0000
    28 O       90.7073  96.3963  81.3023   O.3       1 RES1   0.0000
    29 O       98.7062  96.3902  81.4115   O.3       1 RES1   0.0000
    30 O      101.1319  96.7894  80.5309   O.3       1 RES1   0.0000
    31 N      104.5992 102.5245  78.9804   N.pl3     1 RES1   0.0000
    32 H1     102.9485 101.0250  82.8434   H         1 RES1   0.0000
    33 H2     101.0176  99.5126  76.7890   H         1 RES1   0.0000
    34 H3      99.9531  97.9474  78.5317   H         1 RES1   0.0000
    35 H4     100.9557  98.7085  81.3161   H         1 RES1   0.0000
    36 H5      98.9277  98.2937  82.2465   H         1 RES1   0.0000
    37 H6      97.7302  97.6785  79.5127   H         1 RES1   0.0000
    38 H7      97.0863 100.1526  81.1796   H         1 RES1   0.0000
    39 H8      96.5033  98.5600  81.7652   H         1 RES1   0.0000
    40 H9      95.2176  95.9346  79.9596   H         1 RES1   0.0000
    41 H10     92.5495  97.3443  82.7144   H         1 RES1   0.0000
    42 H11     90.2555  96.8621  78.5774   H         1 RES1   0.0000
    43 H12     90.9579  96.6095  82.1935   H         1 RES1   0.0000
    44 H13     97.8818  96.2637  81.8672   H         1 RES1   0.0000
    45 H14    100.8627  96.3237  79.7474   H         1 RES1   0.0000
    46 H15    105.2930 103.1106  79.4663   H         1 RES1   0.0000
    47 H16    104.5640 102.5163  77.9507   H         1 RES1   0.0000
    48 ****   104.4278 102.3209  81.5269   Du        1 RES1   0.0000
    49 ****   101.3414  99.6586  81.7151   Du        1 RES1   0.0000
    50 ****   102.9676 101.1719  76.9911   Du        1 RES1   0.0000
    51 ****    99.0567 100.1818  80.1580   Du        1 RES1   0.0000
    52 ****    98.4786  99.6845  78.7140   Du        1 RES1   0.0000
    53 ****    96.0546  97.8360  77.7075   Du        1 RES1   0.0000
    54 ****    94.5163  97.0544  77.5566   Du        1 RES1   0.0000
    55 ****    94.3475  96.6186  81.1044   Du        1 RES1   0.0000
    56 ****    95.9534  96.8941  80.9956   Du        1 RES1   0.0000
    57 ****    93.0866 100.5997  81.9833   Du        1 RES1   0.0000
    58 ****    94.5800  99.7974  81.6280   Du        1 RES1   0.0000
    59 ****    94.0829  97.3980  82.2886   Du        1 RES1   0.0000
    60 ****    93.0028  96.5333  81.4213   Du        1 RES1   0.0000
    61 ****    88.2778  97.3983  80.2838   Du        1 RES1   0.0000
    62 ****    88.6629  98.9427  80.9668   Du        1 RES1   0.0000
    63 ****    91.7618  97.2750  78.8884   Du        1 RES1   0.0000
    64 ****    90.6570  98.3986  78.4599   Du        1 RES1   0.0000
    65 ****    91.4514  95.8983  80.8570   Du        1 RES1   0.0000
    66 ****    89.8854  95.8268  81.3144   Du        1 RES1   0.0000
    67 ****    99.4407  95.9556  81.9327   Du        1 RES1   0.0000
    68 ****    98.6488  95.9727  80.5047   Du        1 RES1   0.0000
    69 ****   100.9647  96.2115  81.3297   Du        1 RES1   0.0000
    70 ****   102.1079  96.9985  80.4692   Du        1 RES1   0.0000
@<TRIPOS>BOND
     1     1     2   ar
     2     2     3   ar
     3     3     4   ar
     4     4     5   ar
     5     5     6   ar
     6     1     6   ar
     7     5     7   ar
     8     7     8   ar
     9     8     9   ar
    10     4     9   ar
    11     7    10    1
    12    10    11    1
    13    11    12    1
    14    12    13    1
    15    13    14    1
    16    10    14    1
    17    13    15    1
    18    15    16    1
    19    16    17    1
    20    17    18    2
    21    17    19    1
    22    17    20    1
    23    20    21    1
    24    21    22    2
    25    21    23    1
    26    21    24    1
    27    24    25    1
    28    25    26    2
    29    25    27    1
    30    25    28    1
    31    12    29    1
    32    11    30    1
    33     3    31    1
    34     1    32    1
    35     8    33    1
    36    10    34    1
    37    11    35    1
    38    12    36    1
    39    13    37    1
    40    15    38    1
    41    15    39    1
    42    19    40    1
    43    23    41    1
    44    27    42    1
    45    28    43    1
    46    29    44    1
    47    30    45    1
    48    31    46    1
    49    31    47    1
    50     2    48    1
    51     6    49    1
    52     9    50    1
    53    14    51    1
    54    14    52    1
    55    18    53    1
    56    18    54    1
    57    19    55    1
    58    19    56    1
    59    22    57    1
    60    22    58    1
    61    23    59    1
    62    23    60    1
    63    26    61    1
    64    26    62    1
    65    27    63    1
    66    27    64    1
    67    28    65    1
    68    28    66    1
    69    29    67    1
    70    29    68    1
    71    30    69    1
    72    30    70    1
@<TRIPOS>SUBSTRUCTURE
     1 RES1        1 GROUP             0 ****  ****    0  
@<TRIPOS>MOLECULE
ATP|ATP|mol2|1|dock22
    70    72     1     0     0
SMALL
NO_CHARGES
****
Generated from the CSD

@<TRIPOS>ATOM
     1 C       97.9182  93.7744  82.5088   C.ar      1 RES1   0.0000
     2 N       98.8749  93.1574  83.2401   N.ar      1 RES1   0.0000
     3 C      100.0768  93.7303  83.4624   C.ar      1 RES1   0.0000
     4 C      100.2926  94.9876  82.9051   C.ar      1 RES1   0.0000
     5 C       99.2957  95.5937  82.1572   C.ar      1 RES1   0.0000
     6 N       98.1107  94.9923  81.9583   N.ar      1 RES1   0.0000
     7 N       99.7863  96.7776  81.7527   N.ar      1 RES1   0.0000
     8 C      101.0391  96.9272  82.2301   C.ar      1 RES1   0.0000
     9 N      101.3500  95.8196  82.9356   N.ar      1 RES1   0.0000
    10 C       99.0933  97.6910  81.0169   C.3       1 RES1   0.0000
    11 C       98.8015  97.1790  79.5910   C.3       1 RES1   0.0000
    12 C       97.4681  97.8622  79.2135   C.3       1 RES1   0.0000
    13 C       97.0827  98.6355  80.4941   C.3       1 RES1   0.0000
    14 O       97.7784  97.9311  81.5263   O.3       1 RES1   0.0000
    15 C       95.5611  98.6681  80.7491   C.3       1 RES1   0.0000
    16 O       94.9263  99.6155  79.8836   O.3       1 RES1   0.0000
    17 P       93.4269 100.1443  80.0701   P.3       1 RES1   0.0000
    18 O       93.0775 100.1517  81.5185   O.2       1 RES1   0.0000
    19 O       93.3068 101.6304  79.4896   O.3       1 RES1   0.0000
    20 O       92.4191  99.1653  79.3024   O.3       1 RES1   0.0000
    21 P       91.5534  98.2991  80.3342   P.3       1 RES1   0.0000
    22 O       90.6872  99.2118  81.1322   O.2       1 RES1   0.0000
    23 O       92.5269  97.5116  81.3302   O.3       1 RES1   0.0000
    24 O       90.6436  97.2438  79.5455   O.3       1 RES1   0.0000
    25 P       89.7422  96.3873  80.5545   P.3       1 RES1   0.0000
    26 O       88.8336  97.3062  81.2961   O.2       1 RES1   0.0000
    27 O       88.8651  95.3272  79.7377   O.3       1 RES1   0.0000
    28 O       90.6756  95.6150  81.5998   O.3       1 RES1   0.0000
    29 O       97.6407  98.7539  78.1056   O.3       1 RES1   0.0000
    30 O       99.8540  97.4877  78.6691   O.3       1 RES1   0.0000
    31 N      101.0308  93.1141  84.1930   N.pl3     1 RES1   0.0000
    32 H1      96.9675  93.2754  82.3600   H         1 RES1   0.0000
    33 H2     101.6867  97.7833  82.0789   H         1 RES1   0.0000
    34 H3      99.6404  98.6457  80.9801   H         1 RES1   0.0000
    35 H4      98.6497  96.0893  79.6308   H         1 RES1   0.0000
    36 H5      96.7213  97.0892  78.9733   H         1 RES1   0.0000
    37 H6      97.4855  99.6575  80.4245   H         1 RES1   0.0000
    38 H7      95.3655  98.9758  81.7870   H         1 RES1   0.0000
    39 H8      95.1341  97.6681  80.5805   H         1 RES1   0.0000
    40 H9      93.8979 101.7316  78.7529   H         1 RES1   0.0000
    41 H10     92.0320  97.2051  82.0809   H         1 RES1   0.0000
    42 H11     88.5688  95.7202  78.9251   H         1 RES1   0.0000
    43 H12     90.9931  96.2267  82.2535   H         1 RES1   0.0000
    44 H13     97.9155  98.2736  77.3328   H         1 RES1   0.0000
    45 H14    100.2370  96.6925  78.3170   H         1 RES1   0.0000
    46 H15    100.8484  92.1837  84.5957   H         1 RES1   0.0000
    47 H16    101.9406  93.5721  84.3482   H         1 RES1   0.0000
    48 ****    98.6869  92.2542  83.6257   Du        1 RES1   0.0000
    49 ****    97.3932  95.4332  81.4191   Du        1 RES1   0.0000
    50 ****   102.2178  95.6466  83.4015   Du        1 RES1   0.0000
    51 ****    97.3196  97.0657  81.7274   Du        1 RES1   0.0000
    52 ****    97.8229  98.4858  82.3572   Du        1 RES1   0.0000
    53 ****    92.4182  99.4910  81.8773   Du        1 RES1   0.0000
    54 ****    93.5025 100.8175  82.1319   Du        1 RES1   0.0000
    55 ****    93.5486 102.2876  80.2035   Du        1 RES1   0.0000
    56 ****    92.3677 101.7957  79.1885   Du        1 RES1   0.0000
    57 ****    90.9383  99.4449  82.0717   Du        1 RES1   0.0000
    58 ****    89.8548  99.5913  80.7283   Du        1 RES1   0.0000
    59 ****    93.2547  98.1242  81.6385   Du        1 RES1   0.0000
    60 ****    92.9288  96.7294  80.8542   Du        1 RES1   0.0000
    61 ****    88.4378  97.0210  82.1690   Du        1 RES1   0.0000
    62 ****    88.6197  98.2082  80.9210   Du        1 RES1   0.0000
    63 ****    88.0733  95.0572  80.2856   Du        1 RES1   0.0000
    64 ****    89.4207  94.5209  79.5348   Du        1 RES1   0.0000
    65 ****    91.4522  95.2101  81.1172   Du        1 RES1   0.0000
    66 ****    90.1481  94.8929  82.0474   Du        1 RES1   0.0000
    67 ****    98.3369  99.4339  78.3356   Du        1 RES1   0.0000
    68 ****    96.7740  99.2151  77.9159   Du        1 RES1   0.0000
    69 ****   100.5621  98.0111  79.1430   Du        1 RES1   0.0000
    70 ****    99.4826  98.0335  77.9180   Du        1 RES1   0.0000
@<TRIPOS>BOND
     1     1     2   ar
     2     2     3   ar
     3     3     4   ar
     4     4     5   ar
     5     5     6   ar
     6     1     6   ar
     7     5     7   ar
     8     7     8   ar
     9     8     9   ar
    10     4     9   ar
    11     7    10    1
    12    10    11    1
    13    11    12    1
    14    12    13    1
    15    13    14    1
    16    10    14    1
    17    13    15    1
    18    15    16    1
    19    16    17    1
    20    17    18    2
    21    17    19    1
    22    17    20    1
    23    20    21    1
    24    21    22    2
    25    21    23    1
    26    21    24    1
    27    24    25    1
    28    25    26    2
    29    25    27    1
    30    25    28    1
    31    12    29    1
    32    11    30    1
    33     3    31    1
    34     1    32    1
    35     8    33    1
    36    10    34    1
    37    11    35    1
    38    12    36    1
    39    13    37    1
    40    15    38    1
    41    15    39    1
    42    19    40    1
    43    23    41    1
    44    27    42    1
    45    28    43    1
    46    29    44    1
    47    30    45    1
    48    31    46    1
    49    31    47    1
    50     2    48    1
    51     6    49    1
    52     9    50    1
    53    14    51    1
    54    14    52    1
    55    18    53    1
    56    18    54    1
    57    19    55    1
    58    19    56    1
    59    22    57    1
    60    22    58    1
    61    23    59    1
    62    23    60    1
    63    26    61    1
    64    26    62    1
    65    27    63    1
    66    27    64    1
    67    28    65    1
    68    28    66    1
    69    29    67    1
    70    29    68    1
    71    30    69    1
    72    30    70    1
@<TRIPOS>SUBSTRUCTURE
     1 RES1        1 GROUP             0 ****  ****    0  
@<TRIPOS>MOLECULE
ATP|ATP|mol2|1|dock17
    70    72     1     0     0
SMALL
NO_CHARGES
****
Generated from the CSD

@<TRIPOS>ATOM
     1 C      104.3151 102.7915  79.2386   C.ar      1 RES1   0.0000
     2 N      105.4955 102.4391  79.7982   N.ar      1 RES1   0.0000
     3 C      105.6009 101.3715  80.6173   C.ar      1 RES1   0.0000
     4 C      104.4395 100.6448  80.8643   C.ar      1 RES1   0.0000
     5 C      103.2436 101.0315  80.2805   C.ar      1 RES1   0.0000
     6 N      103.1781 102.1005  79.4690   N.ar      1 RES1   0.0000
     7 N      102.3125 100.1574  80.6990   N.ar      1 RES1   0.0000
     8 C      102.8900  99.2446  81.5072   C.ar      1 RES1   0.0000
     9 N      104.2001  99.5512  81.6112   N.ar      1 RES1   0.0000
    10 C      101.0052 100.1782  80.3167   C.3       1 RES1   0.0000
    11 C      100.7346  99.2177  79.1400   C.3       1 RES1   0.0000
    12 C       99.2698  98.7729  79.3490   C.3       1 RES1   0.0000
    13 C       98.8693  99.4585  80.6742   C.3       1 RES1   0.0000
    14 O      100.1241  99.6756  81.3252   O.3       1 RES1   0.0000
    15 C       97.9176  98.6033  81.5370   C.3       1 RES1   0.0000
    16 O       96.5626  99.0343  81.3691   O.3       1 RES1   0.0000
    17 P       95.3371  98.0545  81.0518   P.3       1 RES1   0.0000
    18 O       95.0013  98.1297  79.6021   O.2       1 RES1   0.0000
    19 O       95.7425  96.5520  81.4234   O.3       1 RES1   0.0000
    20 O       94.0587  98.5107  81.9008   O.3       1 RES1   0.0000
    21 P       92.8882  99.0424  80.9460   P.3       1 RES1   0.0000
    22 O       93.3464 100.2795  80.2534   O.2       1 RES1   0.0000
    23 O       91.5934  99.3905  81.8190   O.3       1 RES1   0.0000
    24 O       92.5067  97.9268  79.8626   O.3       1 RES1   0.0000
    25 P       91.9295  96.6092  80.5659   P.3       1 RES1   0.0000
    26 O       91.7979  95.5306  79.5465   O.2       1 RES1   0.0000
    27 O       92.9273  96.1238  81.7188   O.3       1 RES1   0.0000
    28 O       90.4912  96.9127  81.1980   O.3       1 RES1   0.0000
    29 O       98.4377  99.2132  78.2693   O.3       1 RES1   0.0000
    30 O      100.9408  99.8376  77.8648   O.3       1 RES1   0.0000
    31 N      106.7796 101.0202  81.1748   N.pl3     1 RES1   0.0000
    32 H1     104.2809 103.6555  78.5850   H         1 RES1   0.0000
    33 H2     102.3955  98.4093  81.9900   H         1 RES1   0.0000
    34 H3     100.6999 101.2035  80.0565   H         1 RES1   0.0000
    35 H4     101.3949  98.3424  79.2392   H         1 RES1   0.0000
    36 H5      99.2347  97.6759  79.4401   H         1 RES1   0.0000
    37 H6      98.4125 100.4330  80.4439   H         1 RES1   0.0000
    38 H7      98.1780  98.7165  82.5998   H         1 RES1   0.0000
    39 H8      98.0075  97.5444  81.2521   H         1 RES1   0.0000
    40 H9      95.2361  96.2633  82.1734   H         1 RES1   0.0000
    41 H10     91.8625  99.7560  82.6535   H         1 RES1   0.0000
    42 H11     92.5406  96.3018  82.5682   H         1 RES1   0.0000
    43 H12     90.5979  97.2721  82.0709   H         1 RES1   0.0000
    44 H13     98.7549  98.8664  77.4432   H         1 RES1   0.0000
    45 H14    101.1156 100.7661  77.9663   H         1 RES1   0.0000
    46 H15    107.6261 101.5729  80.9775   H         1 RES1   0.0000
    47 H16    106.8342 100.2009  81.7973   H         1 RES1   0.0000
    48 ****   106.3106 102.9834  79.5998   Du        1 RES1   0.0000
    49 ****   102.3136 102.3758  79.0485   Du        1 RES1   0.0000
    50 ****   104.8772  99.0511  82.1510   Du        1 RES1   0.0000
    51 ****   100.4759  98.8172  81.6985   Du        1 RES1   0.0000
    52 ****   100.0227 100.3431  82.0630   Du        1 RES1   0.0000
    53 ****    94.1994  97.6478  79.2490   Du        1 RES1   0.0000
    54 ****    95.5779  98.6620  78.9822   Du        1 RES1   0.0000
    55 ****    96.7170  96.5149  81.6450   Du        1 RES1   0.0000
    56 ****    95.5548  95.9538  80.6443   Du        1 RES1   0.0000
    57 ****    94.2646 100.3212  79.8597   Du        1 RES1   0.0000
    58 ****    92.7356 101.0681  80.1824   Du        1 RES1   0.0000
    59 ****    91.0632  98.5572  81.9756   Du        1 RES1   0.0000
    60 ****    91.0307 100.0566  81.3295   Du        1 RES1   0.0000
    61 ****    92.5155  94.8404  79.4534   Du        1 RES1   0.0000
    62 ****    90.9920  95.4968  78.9555   Du        1 RES1   0.0000
    63 ****    93.7944  96.6153  81.6378   Du        1 RES1   0.0000
    64 ****    93.0909  95.1417  81.6262   Du        1 RES1   0.0000
    65 ****    89.9639  96.0645  81.2490   Du        1 RES1   0.0000
    66 ****    90.0069  97.5722  80.6231   Du        1 RES1   0.0000
    67 ****    98.4474 100.2125  78.2324   Du        1 RES1   0.0000
    68 ****    97.5024  98.8944  78.4230   Du        1 RES1   0.0000
    69 ****   100.1208  99.7174  77.3052   Du        1 RES1   0.0000
    70 ****   101.7200  99.4046  77.4117   Du        1 RES1   0.0000
@<TRIPOS>BOND
     1     1     2   ar
     2     2     3   ar
     3     3     4   ar
     4     4     5   ar
     5     5     6   ar
     6     1     6   ar
     7     5     7   ar
     8     7     8   ar
     9     8     9   ar
    10     4     9   ar
    11     7    10    1
    12    10    11    1
    13    11    12    1
    14    12    13    1
    15    13    14    1
    16    10    14    1
    17    13    15    1
    18    15    16    1
    19    16    17    1
    20    17    18    2
    21    17    19    1
    22    17    20    1
    23    20    21    1
    24    21    22    2
    25    21    23    1
    26    21    24    1
    27    24    25    1
    28    25    26    2
    29    25    27    1
    30    25    28    1
    31    12    29    1
    32    11    30    1
    33     3    31    1
    34     1    32    1
    35     8    33    1
    36    10    34    1
    37    11    35    1
    38    12    36    1
    39    13    37    1
    40    15    38    1
    41    15    39    1
    42    19    40    1
    43    23    41    1
    44    27    42    1
    45    28    43    1
    46    29    44    1
    47    30    45    1
    48    31    46    1
    49    31    47    1
    50     2    48    1
    51     6    49    1
    52     9    50    1
    53    14    51    1
    54    14    52    1
    55    18    53    1
    56    18    54    1
    57    19    55    1
    58    19    56    1
    59    22    57    1
    60    22    58    1
    61    23    59    1
    62    23    60    1
    63    26    61    1
    64    26    62    1
    65    27    63    1
    66    27    64    1
    67    28    65    1
    68    28    66    1
    69    29    67    1
    70    29    68    1
    71    30    69    1
    72    30    70    1
@<TRIPOS>SUBSTRUCTURE
     1 RES1        1 GROUP             0 ****  ****    0  
@<TRIPOS>MOLECULE
ATP|ATP|mol2|1|dock11
    70    72     1     0     0
SMALL
NO_CHARGES
****
Generated from the CSD

@<TRIPOS>ATOM
     1 C       95.7264  95.3627  82.9853   C.ar      1 RES1   0.0000
     2 N       95.5313  94.0238  82.9865   N.ar      1 RES1   0.0000
     3 C       96.5647  93.1569  82.9360   C.ar      1 RES1   0.0000
     4 C       97.8454  93.6997  82.8817   C.ar      1 RES1   0.0000
     5 C       98.0148  95.0751  82.8778   C.ar      1 RES1   0.0000
     6 N       96.9609  95.9071  82.9302   N.ar      1 RES1   0.0000
     7 N       99.3387  95.2981  82.8168   N.ar      1 RES1   0.0000
     8 C       99.9887  94.1163  82.7935   C.ar      1 RES1   0.0000
     9 N       99.0650  93.1331  82.8282   N.ar      1 RES1   0.0000
    10 C       99.9162  96.5319  82.8271   C.3       1 RES1   0.0000
    11 C      101.1527  96.5960  81.9065   C.3       1 RES1   0.0000
    12 C      101.1862  98.0642  81.4264   C.3       1 RES1   0.0000
    13 C       99.9155  98.6791  82.0540   C.3       1 RES1   0.0000
    14 O       99.0726  97.5440  82.2704   O.3       1 RES1   0.0000
    15 C       99.2389  99.7301  81.1492   C.3       1 RES1   0.0000
    16 O       98.0654  99.1852  80.5361   O.3       1 RES1   0.0000
    17 P       97.8391  99.0815  78.9548   P.3       1 RES1   0.0000
    18 O       98.1485 100.3935  78.3200   O.2       1 RES1   0.0000
    19 O       98.8050  97.9597  78.3479   O.3       1 RES1   0.0000
    20 O       96.3087  98.7150  78.6601   O.3       1 RES1   0.0000
    21 P       95.4443  98.7077  80.0081   P.3       1 RES1   0.0000
    22 O       95.5340 100.0477  80.6535   O.2       1 RES1   0.0000
    23 O       96.0246  97.6103  81.0175   O.3       1 RES1   0.0000
    24 O       93.9141  98.3659  79.6838   O.3       1 RES1   0.0000
    25 P       93.0078  98.4583  81.0006   P.3       1 RES1   0.0000
    26 O       91.5993  98.1250  80.6472   O.2       1 RES1   0.0000
    27 O       93.5335  97.4206  82.0993   O.3       1 RES1   0.0000
    28 O       93.0624  99.9415  81.5985   O.3       1 RES1   0.0000
    29 O      102.3652  98.7322  81.8912   O.3       1 RES1   0.0000
    30 O      102.3591  96.2128  82.5777   O.3       1 RES1   0.0000
    31 N       96.3690  91.8208  82.9379   N.pl3     1 RES1   0.0000
    32 H1      94.8648  96.0190  83.0298   H         1 RES1   0.0000
    33 H2     101.0627  93.9741  82.7550   H         1 RES1   0.0000
    34 H3     100.1849  96.8189  83.8555   H         1 RES1   0.0000
    35 H4     100.9834  95.9374  81.0408   H         1 RES1   0.0000
    36 H5     101.1393  98.0859  80.3264   H         1 RES1   0.0000
    37 H6     100.1797  99.1191  83.0277   H         1 RES1   0.0000
    38 H7      99.9300 100.0293  80.3473   H         1 RES1   0.0000
    39 H8      98.9689 100.6151  81.7446   H         1 RES1   0.0000
    40 H9      99.1482  98.2549  77.5128   H         1 RES1   0.0000
    41 H10     96.6898  97.0946  80.5771   H         1 RES1   0.0000
    42 H11     92.8130  97.1632  82.6624   H         1 RES1   0.0000
    43 H12     92.7595 100.5589  80.9431   H         1 RES1   0.0000
    44 H13    102.1949  99.6593  82.0136   H         1 RES1   0.0000
    45 H14    102.1677  95.8613  83.4396   H         1 RES1   0.0000
    46 H15     95.4120  91.4419  82.9786   H         1 RES1   0.0000
    47 H16     97.1745  91.1795  82.8983   H         1 RES1   0.0000
    48 ****    94.5978  93.6674  83.0258   Du        1 RES1   0.0000
    49 ****    97.0870  96.8991  82.9284   Du        1 RES1   0.0000
    50 ****    99.2543  92.1513  82.8163   Du        1 RES1   0.0000
    51 ****    98.6794  97.2324  81.4053   Du        1 RES1   0.0000
    52 ****    98.3368  97.7732  82.9076   Du        1 RES1   0.0000
    53 ****    97.9141 101.2443  78.7904   Du        1 RES1   0.0000
    54 ****    98.5905 100.4233  77.4235   Du        1 RES1   0.0000
    55 ****    98.2903  97.1126  78.2160   Du        1 RES1   0.0000
    56 ****    99.5623  97.7946  78.9798   Du        1 RES1   0.0000
    57 ****    95.8313 100.8402  80.1210   Du        1 RES1   0.0000
    58 ****    95.2968 100.1545  81.6191   Du        1 RES1   0.0000
    59 ****    95.2837  97.0105  81.3195   Du        1 RES1   0.0000
    60 ****    96.4278  98.0671  81.8105   Du        1 RES1   0.0000
    61 ****    91.4080  97.5065  79.8851   Du        1 RES1   0.0000
    62 ****    90.8453  98.5199  81.1720   Du        1 RES1   0.0000
    63 ****    94.2489  97.8514  82.6493   Du        1 RES1   0.0000
    64 ****    93.9053  96.6120  81.6431   Du        1 RES1   0.0000
    65 ****    94.0032 100.1629  81.8552   Du        1 RES1   0.0000
    66 ****    92.4747  99.9973  82.4057   Du        1 RES1   0.0000
    67 ****   103.0957  98.6176  81.2180   Du        1 RES1   0.0000
    68 ****   102.6489  98.3317  82.7624   Du        1 RES1   0.0000
    69 ****   102.9497  97.0140  82.6739   Du        1 RES1   0.0000
    70 ****   102.8287  95.5156  82.0360   Du        1 RES1   0.0000
@<TRIPOS>BOND
     1     1     2   ar
     2     2     3   ar
     3     3     4   ar
     4     4     5   ar
     5     5     6   ar
     6     1     6   ar
     7     5     7   ar
     8     7     8   ar
     9     8     9   ar
    10     4     9   ar
    11     7    10    1
    12    10    11    1
    13    11    12    1
    14    12    13    1
    15    13    14    1
    16    10    14    1
    17    13    15    1
    18    15    16    1
    19    16    17    1
    20    17    18    2
    21    17    19    1
    22    17    20    1
    23    20    21    1
    24    21    22    2
    25    21    23    1
    26    21    24    1
    27    24    25    1
    28    25    26    2
    29    25    27    1
    30    25    28    1
    31    12    29    1
    32    11    30    1
    33     3    31    1
    34     1    32    1
    35     8    33    1
    36    10    34    1
    37    11    35    1
    38    12    36    1
    39    13    37    1
    40    15    38    1
    41    15    39    1
    42    19    40    1
    43    23    41    1
    44    27    42    1
    45    28    43    1
    46    29    44    1
    47    30    45    1
    48    31    46    1
    49    31    47    1
    50     2    48    1
    51     6    49    1
    52     9    50    1
    53    14    51    1
    54    14    52    1
    55    18    53    1
    56    18    54    1
    57    19    55    1
    58    19    56    1
    59    22    57    1
    60    22    58    1
    61    23    59    1
    62    23    60    1
    63    26    61    1
    64    26    62    1
    65    27    63    1
    66    27    64    1
    67    28    65    1
    68    28    66    1
    69    29    67    1
    70    29    68    1
    71    30    69    1
    72    30    70    1
@<TRIPOS>SUBSTRUCTURE
     1 RES1        1 GROUP             0 ****  ****    0  
@<TRIPOS>MOLECULE
ATP|ATP|mol2|1|dock6
    70    72     1     0     0
SMALL
NO_CHARGES
****
Generated from the CSD

@<TRIPOS>ATOM
     1 C       94.2096  94.2338  84.1993   C.ar      1 RES1   0.0000
     2 N       94.3001  92.8895  84.3233   N.ar      1 RES1   0.0000
     3 C       95.4039  92.2148  83.9378   C.ar      1 RES1   0.0000
     4 C       96.4500  92.9626  83.4044   C.ar      1 RES1   0.0000
     5 C       96.3276  94.3379  83.2858   C.ar      1 RES1   0.0000
     6 N       95.2127  94.9749  83.6818   N.ar      1 RES1   0.0000
     7 N       97.4751  94.7793  82.7431   N.ar      1 RES1   0.0000
     8 C       98.3001  93.7328  82.5335   C.ar      1 RES1   0.0000
     9 N       97.6630  92.6139  82.9374   N.ar      1 RES1   0.0000
    10 C       97.7603  96.0884  82.4963   C.3       1 RES1   0.0000
    11 C       98.8817  96.2451  81.4482   C.3       1 RES1   0.0000
    12 C       98.5504  97.5789  80.7422   C.3       1 RES1   0.0000
    13 C       97.2224  98.0160  81.3994   C.3       1 RES1   0.0000
    14 O       96.6734  96.7866  81.8820   O.3       1 RES1   0.0000
    15 C       96.2642  98.7248  80.4193   C.3       1 RES1   0.0000
    16 O       95.2313  99.4119  81.1341   O.3       1 RES1   0.0000
    17 P       93.9112 100.0121  80.4563   P.3       1 RES1   0.0000
    18 O       92.9855 100.5022  81.5160   O.2       1 RES1   0.0000
    19 O       94.3078 101.2293  79.4966   O.3       1 RES1   0.0000
    20 O       93.1741  98.8631  79.6198   O.3       1 RES1   0.0000
    21 P       92.2624  97.9498  80.5680   P.3       1 RES1   0.0000
    22 O       91.1146  98.7576  81.0679   O.2       1 RES1   0.0000
    23 O       93.1203  97.4442  81.8203   O.3       1 RES1   0.0000
    24 O       91.7174  96.6807  79.7581   O.3       1 RES1   0.0000
    25 P       90.8404  95.7261  80.6980   P.3       1 RES1   0.0000
    26 O       90.2355  94.6469  79.8678   O.2       1 RES1   0.0000
    27 O       91.7673  95.0664  81.8232   O.3       1 RES1   0.0000
    28 O       89.6728  96.5691  81.3955   O.3       1 RES1   0.0000
    29 O       99.5796  98.5502  80.9651   O.3       1 RES1   0.0000
    30 O      100.1882  96.2478  82.0363   O.3       1 RES1   0.0000
    31 N       95.4935  90.8732  84.0625   N.pl3     1 RES1   0.0000
    32 H1      93.3036  94.7314  84.5256   H         1 RES1   0.0000
    33 H2      99.2998  93.7759  82.1162   H         1 RES1   0.0000
    34 H3      98.0306  96.6030  83.4312   H         1 RES1   0.0000
    35 H4      98.8030  95.4228  80.7206   H         1 RES1   0.0000
    36 H5      98.4212  97.3948  79.6641   H         1 RES1   0.0000
    37 H6      97.4501  98.6671  82.2571   H         1 RES1   0.0000
    38 H7      95.7844  97.9807  79.7663   H         1 RES1   0.0000
    39 H8      96.8266  99.4408  79.8015   H         1 RES1   0.0000
    40 H9      94.8845 100.9165  78.8097   H         1 RES1   0.0000
    41 H10     92.5346  97.1759  82.5184   H         1 RES1   0.0000
    42 H11     91.6453  95.5277  82.6447   H         1 RES1   0.0000
    43 H12     88.8810  96.5051  80.8745   H         1 RES1   0.0000
    44 H13    100.3696  98.1292  81.2845   H         1 RES1   0.0000
    45 H14    100.7822  96.7938  81.5342   H         1 RES1   0.0000
    46 H15     94.7066  90.3407  84.4602   H         1 RES1   0.0000
    47 H16     96.3469  90.3811  83.7605   H         1 RES1   0.0000
    48 ****    93.5297  92.3828  84.7103   Du        1 RES1   0.0000
    49 ****    95.1285  95.9677  83.5958   Du        1 RES1   0.0000
    50 ****    98.0295  91.6844  82.8965   Du        1 RES1   0.0000
    51 ****    96.2993  96.2513  81.1247   Du        1 RES1   0.0000
    52 ****    95.9524  96.9663  82.5513   Du        1 RES1   0.0000
    53 ****    93.1346 100.2413  82.4698   Du        1 RES1   0.0000
    54 ****    92.2152 101.0919  81.2735   Du        1 RES1   0.0000
    55 ****    94.7758 101.9347  80.0290   Du        1 RES1   0.0000
    56 ****    93.4806 101.6144  79.0875   Du        1 RES1   0.0000
    57 ****    90.3142  98.9025  80.4862   Du        1 RES1   0.0000
    58 ****    91.1446  99.1549  81.9851   Du        1 RES1   0.0000
    59 ****    93.7066  98.1867  82.1442   Du        1 RES1   0.0000
    60 ****    93.6872  96.6680  81.5443   Du        1 RES1   0.0000
    61 ****    89.9720  93.7796  80.2899   Du        1 RES1   0.0000
    62 ****    90.0930  94.7900  78.8884   Du        1 RES1   0.0000
    63 ****    92.7257  95.1295  81.5446   Du        1 RES1   0.0000
    64 ****    91.5167  94.1054  81.9401   Du        1 RES1   0.0000
    65 ****    89.9495  97.5275  81.4648   Du        1 RES1   0.0000
    66 ****    89.4999  96.2050  82.3106   Du        1 RES1   0.0000
    67 ****    99.2639  99.2151  81.6420   Du        1 RES1   0.0000
    68 ****    99.7811  99.0198  80.1055   Du        1 RES1   0.0000
    69 ****   100.5407  95.3122  82.0568   Du        1 RES1   0.0000
    70 ****   100.1271  96.6016  82.9696   Du        1 RES1   0.0000
@<TRIPOS>BOND
     1     1     2   ar
     2     2     3   ar
     3     3     4   ar
     4     4     5   ar
     5     5     6   ar
     6     1     6   ar
     7     5     7   ar
     8     7     8   ar
     9     8     9   ar
    10     4     9   ar
    11     7    10    1
    12    10    11    1
    13    11    12    1
    14    12    13    1
    15    13    14    1
    16    10    14    1
    17    13    15    1
    18    15    16    1
    19    16    17    1
    20    17    18    2
    21    17    19    1
    22    17    20    1
    23    20    21    1
    24    21    22    2
    25    21    23    1
    26    21    24    1
    27    24    25    1
    28    25    26    2
    29    25    27    1
    30    25    28    1
    31    12    29    1
    32    11    30    1
    33     3    31    1
    34     1    32    1
    35     8    33    1
    36    10    34    1
    37    11    35    1
    38    12    36    1
    39    13    37    1
    40    15    38    1
    41    15    39    1
    42    19    40    1
    43    23    41    1
    44    27    42    1
    45    28    43    1
    46    29    44    1
    47    30    45    1
    48    31    46    1
    49    31    47    1
    50     2    48    1
    51     6    49    1
    52     9    50    1
    53    14    51    1
    54    14    52    1
    55    18    53    1
    56    18    54    1
    57    19    55    1
    58    19    56    1
    59    22    57    1
    60    22    58    1
    61    23    59    1
    62    23    60    1
    63    26    61    1
    64    26    62    1
    65    27    63    1
    66    27    64    1
    67    28    65    1
    68    28    66    1
    69    29    67    1
    70    29    68    1
    71    30    69    1
    72    30    70    1
@<TRIPOS>SUBSTRUCTURE
     1 RES1        1 GROUP             0 ****  ****    0  
@<TRIPOS>MOLECULE
ATP|ATP|mol2|1|dock20
    70    72     1     0     0
SMALL
NO_CHARGES
****
Generated from the CSD

@<TRIPOS>ATOM
     1 C       96.6572  94.7624  83.5564   C.ar      1 RES1   0.0000
     2 N       97.5069  93.8592  84.0977   N.ar      1 RES1   0.0000
     3 C       98.8109  93.8166  83.7514   C.ar      1 RES1   0.0000
     4 C       99.2473  94.7442  82.8096   C.ar      1 RES1   0.0000
     5 C       98.3535  95.6550  82.2691   C.ar      1 RES1   0.0000
     6 N       97.0619  95.6675  82.6396   N.ar      1 RES1   0.0000
     7 N       99.0507  96.4068  81.4003   N.ar      1 RES1   0.0000
     8 C      100.3373  96.0015  81.3933   C.ar      1 RES1   0.0000
     9 N      100.4539  94.9730  82.2591   N.ar      1 RES1   0.0000
    10 C       98.5315  97.4432  80.6846   C.3       1 RES1   0.0000
    11 C       98.6993  97.2341  79.1652   C.3       1 RES1   0.0000
    12 C       97.4829  97.9621  78.5506   C.3       1 RES1   0.0000
    13 C       96.6905  98.4475  79.7847   C.3       1 RES1   0.0000
    14 O       97.1118  97.5541  80.8191   O.3       1 RES1   0.0000
    15 C       95.1616  98.4053  79.5798   C.3       1 RES1   0.0000
    16 O       94.4838  98.8612  80.7557   O.3       1 RES1   0.0000
    17 P       93.0195  98.3857  81.1942   P.3       1 RES1   0.0000
    18 O       92.2484  97.9705  79.9888   O.2       1 RES1   0.0000
    19 O       93.1373  97.1464  82.1993   O.3       1 RES1   0.0000
    20 O       92.2553  99.6025  81.9005   O.3       1 RES1   0.0000
    21 P       91.8590 100.7332  80.8380   P.3       1 RES1   0.0000
    22 O       93.0727 101.1287  80.0696   O.2       1 RES1   0.0000
    23 O       91.2917 102.0193  81.6022   O.3       1 RES1   0.0000
    24 O       90.7398 100.1828  79.8340   O.3       1 RES1   0.0000
    25 P       89.4304  99.7129  80.6268   P.3       1 RES1   0.0000
    26 O       88.8425 100.8848  81.3344   O.2       1 RES1   0.0000
    27 O       88.3530  99.1237  79.6010   O.3       1 RES1   0.0000
    28 O       89.8149  98.5901  81.7000   O.3       1 RES1   0.0000
    29 O       97.8988  99.0665  77.7385   O.3       1 RES1   0.0000
    30 O       99.9457  97.7420  78.6740   O.3       1 RES1   0.0000
    31 N       99.6583  92.9153  84.2927   N.pl3     1 RES1   0.0000
    32 H1      95.6191  94.7593  83.8682   H         1 RES1   0.0000
    33 H2     101.1410  96.4236  80.8005   H         1 RES1   0.0000
    34 H3      98.9936  98.3923  80.9973   H         1 RES1   0.0000
    35 H4      98.6238  96.1579  78.9460   H         1 RES1   0.0000
    36 H5      96.8958  97.2455  77.9552   H         1 RES1   0.0000
    37 H6      97.0192  99.4672  80.0371   H         1 RES1   0.0000
    38 H7      94.8418  97.3707  79.3862   H         1 RES1   0.0000
    39 H8      94.8834  99.0374  78.7233   H         1 RES1   0.0000
    40 H9      92.3623  97.1078  82.7472   H         1 RES1   0.0000
    41 H10     90.4572 101.8073  82.0035   H         1 RES1   0.0000
    42 H11     88.4596  98.1819  79.5356   H         1 RES1   0.0000
    43 H12     90.4713  98.9323  82.2955   H         1 RES1   0.0000
    44 H13     98.2883  98.7552  76.9293   H         1 RES1   0.0000
    45 H14    100.5172  97.0311  78.4075   H         1 RES1   0.0000
    46 H15     99.3127  92.2385  84.9880   H         1 RES1   0.0000
    47 H16    100.6495  92.9028  84.0116   H         1 RES1   0.0000
    48 ****    97.1601  93.2067  84.7714   Du        1 RES1   0.0000
    49 ****    96.4201  96.3270  82.2484   Du        1 RES1   0.0000
    50 ****   101.2934  94.4673  82.4578   Du        1 RES1   0.0000
    51 ****    96.6802  96.6595  80.7036   Du        1 RES1   0.0000
    52 ****    96.8751  97.9249  81.7171   Du        1 RES1   0.0000
    53 ****    91.2520  98.0547  79.9792   Du        1 RES1   0.0000
    54 ****    92.7273  97.6077  79.1894   Du        1 RES1   0.0000
    55 ****    93.9471  97.2599  82.7749   Du        1 RES1   0.0000
    56 ****    93.2173  96.2986  81.6750   Du        1 RES1   0.0000
    57 ****    93.1814 100.8340  79.1202   Du        1 RES1   0.0000
    58 ****    93.7786 101.6888  80.5032   Du        1 RES1   0.0000
    59 ****    91.1673 102.7667  80.9496   Du        1 RES1   0.0000
    60 ****    91.9402 102.2993  82.3100   Du        1 RES1   0.0000
    61 ****    88.6147 101.7143  80.8244   Du        1 RES1   0.0000
    62 ****    88.6755 100.8420  82.3195   Du        1 RES1   0.0000
    63 ****    88.4886  99.5378  78.7009   Du        1 RES1   0.0000
    64 ****    87.4316  99.3329  79.9287   Du        1 RES1   0.0000
    65 ****    90.1798  97.7881  81.2270   Du        1 RES1   0.0000
    66 ****    88.9994  98.3299  82.2168   Du        1 RES1   0.0000
    67 ****    98.5721  99.6094  78.2406   Du        1 RES1   0.0000
    68 ****    97.1048  99.6354  77.5244   Du        1 RES1   0.0000
    69 ****   100.3928  98.2692  79.3966   Du        1 RES1   0.0000
    70 ****    99.7713  98.3350  77.8879   Du        1 RES1   0.0000
@<TRIPOS>BOND
     1     1     2   ar
     2     2     3   ar
     3     3     4   ar
     4     4     5   ar
     5     5     6   ar
     6     1     6   ar
     7     5     7   ar
     8     7     8   ar
     9     8     9   ar
    10     4     9   ar
    11     7    10    1
    12    10    11    1
    13    11    12    1
    14    12    13    1
    15    13    14    1
    16    10    14    1
    17    13    15    1
    18    15    16    1
    19    16    17    1
    20    17    18    2
    21    17    19    1
    22    17    20    1
    23    20    21    1
    24    21    22    2
    25    21    23    1
    26    21    24    1
    27    24    25    1
    28    25    26    2
    29    25    27    1
    30    25    28    1
    31    12    29    1
    32    11    30    1
    33     3    31    1
    34     1    32    1
    35     8    33    1
    36    10    34    1
    37    11    35    1
    38    12    36    1
    39    13    37    1
    40    15    38    1
    41    15    39    1
    42    19    40    1
    43    23    41    1
    44    27    42    1
    45    28    43    1
    46    29    44    1
    47    30    45    1
    48    31    46    1
    49    31    47    1
    50     2    48    1
    51     6    49    1
    52     9    50    1
    53    14    51    1
    54    14    52    1
    55    18    53    1
    56    18    54    1
    57    19    55    1
    58    19    56    1
    59    22    57    1
    60    22    58    1
    61    23    59    1
    62    23    60    1
    63    26    61    1
    64    26    62    1
    65    27    63    1
    66    27    64    1
    67    28    65    1
    68    28    66    1
    69    29    67    1
    70    29    68    1
    71    30    69    1
    72    30    70    1
@<TRIPOS>SUBSTRUCTURE
     1 RES1        1 GROUP             0 ****  ****    0  
@<TRIPOS>MOLECULE
ATP|ATP|mol2|1|dock13
    70    72     1     0     0
SMALL
NO_CHARGES
****
Generated from the CSD

@<TRIPOS>ATOM
     1 C       93.3892  94.6901  82.7603   C.ar      1 RES1   0.0000
     2 N       92.9182  93.4530  83.0405   N.ar      1 RES1   0.0000
     3 C       93.7474  92.4262  83.3234   C.ar      1 RES1   0.0000
     4 C       95.1136  92.6935  83.3143   C.ar      1 RES1   0.0000
     5 C       95.5673  93.9694  83.0198   C.ar      1 RES1   0.0000
     6 N       94.7107  94.9672  82.7440   N.ar      1 RES1   0.0000
     7 N       96.9090  93.9230  83.0826   N.ar      1 RES1   0.0000
     8 C       97.2964  92.6739  83.4134   C.ar      1 RES1   0.0000
     9 N       96.1874  91.9173  83.5503   N.ar      1 RES1   0.0000
    10 C       97.7296  94.9927  82.8872   C.3       1 RES1   0.0000
    11 C       98.8699  94.6701  81.8992   C.3       1 RES1   0.0000
    12 C       99.1678  96.0237  81.2163   C.3       1 RES1   0.0000
    13 C       98.1108  96.9742  81.8211   C.3       1 RES1   0.0000
    14 O       97.0713  96.0863  82.2415   O.3       1 RES1   0.0000
    15 C       97.5938  98.0254  80.8167   C.3       1 RES1   0.0000
    16 O       96.4882  98.7480  81.3692   O.3       1 RES1   0.0000
    17 P       95.2272  99.2534  80.5225   P.3       1 RES1   0.0000
    18 O       94.1959  99.8054  81.4454   O.2       1 RES1   0.0000
    19 O       95.6900 100.3962  79.5027   O.3       1 RES1   0.0000
    20 O       94.5949  98.0188  79.7230   O.3       1 RES1   0.0000
    21 P       93.1188  97.6843  80.2460   P.3       1 RES1   0.0000
    22 O       92.1987  98.7878  79.8513   O.2       1 RES1   0.0000
    23 O       93.1239  97.5640  81.8414   O.3       1 RES1   0.0000
    24 O       92.6072  96.3037  79.6169   O.3       1 RES1   0.0000
    25 P       91.0656  96.0447  79.9635   P.3       1 RES1   0.0000
    26 O       90.2491  96.2455  78.7335   O.2       1 RES1   0.0000
    27 O       90.8678  94.5455  80.4865   O.3       1 RES1   0.0000
    28 O       90.5790  97.0713  81.0903   O.3       1 RES1   0.0000
    29 O      100.4950  96.4718  81.5161   O.3       1 RES1   0.0000
    30 O      100.0224  94.1206  82.5493   O.3       1 RES1   0.0000
    31 N       93.2764  91.1920  83.6036   N.pl3     1 RES1   0.0000
    32 H1      92.6837  95.4835  82.5419   H         1 RES1   0.0000
    33 H2      98.3162  92.3318  83.5484   H         1 RES1   0.0000
    34 H3      98.1382  95.3409  83.8484   H         1 RES1   0.0000
    35 H4      98.4945  93.9609  81.1454   H         1 RES1   0.0000
    36 H5      99.0335  95.9170  80.1285   H         1 RES1   0.0000
    37 H6      98.5422  97.4646  82.7070   H         1 RES1   0.0000
    38 H7      97.2452  97.5241  79.9016   H         1 RES1   0.0000
    39 H8      98.4033  98.7254  80.5610   H         1 RES1   0.0000
    40 H9      95.9476 101.1701  79.9895   H         1 RES1   0.0000
    41 H10     93.1235  96.6473  82.0903   H         1 RES1   0.0000
    42 H11     90.4918  94.5612  81.3588   H         1 RES1   0.0000
    43 H12     90.9527  96.8235  81.9278   H         1 RES1   0.0000
    44 H13    101.1240  95.7778  81.3546   H         1 RES1   0.0000
    45 H14     99.8512  93.9764  83.4728   H         1 RES1   0.0000
    46 H15     92.2612  91.0177  83.6046   H         1 RES1   0.0000
    47 H16     93.9300  90.4244  83.8161   H         1 RES1   0.0000
    48 ****    91.9307  93.2954  83.0380   Du        1 RES1   0.0000
    49 ****    95.0417  95.8870  82.5331   Du        1 RES1   0.0000
    50 ****    96.1669  90.9459  83.7867   Du        1 RES1   0.0000
    51 ****    96.5501  95.7618  81.4521   Du        1 RES1   0.0000
    52 ****    96.4559  96.5483  82.8802   Du        1 RES1   0.0000
    53 ****    94.4749 100.2956  82.2712   Du        1 RES1   0.0000
    54 ****    93.2248  99.6857  81.2391   Du        1 RES1   0.0000
    55 ****    94.9323 100.6239  78.8912   Du        1 RES1   0.0000
    56 ****    96.4660 100.0678  78.9641   Du        1 RES1   0.0000
    57 ****    91.9507  98.9125  78.8906   Du        1 RES1   0.0000
    58 ****    91.8291  99.4036  80.5471   Du        1 RES1   0.0000
    59 ****    92.3092  98.0102  82.2118   Du        1 RES1   0.0000
    60 ****    93.9421  98.0080  82.2064   Du        1 RES1   0.0000
    61 ****    90.6403  96.7218  77.9460   Du        1 RES1   0.0000
    62 ****    89.3100  95.9041  78.6955   Du        1 RES1   0.0000
    63 ****    91.7537  94.0824  80.5137   Du        1 RES1   0.0000
    64 ****    90.2542  94.0549  79.8678   Du        1 RES1   0.0000
    65 ****    89.5811  97.0505  81.1515   Du        1 RES1   0.0000
    66 ****    90.8791  97.9949  80.8516   Du        1 RES1   0.0000
    67 ****   100.5422  96.7417  82.4779   Du        1 RES1   0.0000
    68 ****   100.7158  97.2575  80.9383   Du        1 RES1   0.0000
    69 ****   100.7879  94.7568  82.4529   Du        1 RES1   0.0000
    70 ****   100.2573  93.2489  82.1192   Du        1 RES1   0.0000
@<TRIPOS>BOND
     1     1     2   ar
     2     2     3   ar
     3     3     4   ar
     4     4     5   ar
     5     5     6   ar
     6     1     6   ar
     7     5     7   ar
     8     7     8   ar
     9     8     9   ar
    10     4     9   ar
    11     7    10    1
    12    10    11    1
    13    11    12    1
    14    12    13    1
    15    13    14    1
    16    10    14    1
    17    13    15    1
    18    15    16    1
    19    16    17    1
    20    17    18    2
    21    17    19    1
    22    17    20    1
    23    20    21    1
    24    21    22    2
    25    21    23    1
    26    21    24    1
    27    24    25    1
    28    25    26    2
    29    25    27    1
    30    25    28    1
    31    12    29    1
    32    11    30    1
    33     3    31    1
    34     1    32    1
    35     8    33    1
    36    10    34    1
    37    11    35    1
    38    12    36    1
    39    13    37    1
    40    15    38    1
    41    15    39    1
    42    19    40    1
    43    23    41    1
    44    27    42    1
    45    28    43    1
    46    29    44    1
    47    30    45    1
    48    31    46    1
    49    31    47    1
    50     2    48    1
    51     6    49    1
    52     9    50    1
    53    14    51    1
    54    14    52    1
    55    18    53    1
    56    18    54    1
    57    19    55    1
    58    19    56    1
    59    22    57    1
    60    22    58    1
    61    23    59    1
    62    23    60    1
    63    26    61    1
    64    26    62    1
    65    27    63    1
    66    27    64    1
    67    28    65    1
    68    28    66    1
    69    29    67    1
    70    29    68    1
    71    30    69    1
    72    30    70    1
@<TRIPOS>SUBSTRUCTURE
     1 RES1        1 GROUP             0 ****  ****    0  
@<TRIPOS>MOLECULE
ATP|ATP|mol2|1|dock18
    70    72     1     0     0
SMALL
NO_CHARGES
****
Generated from the CSD

@<TRIPOS>ATOM
     1 C       95.5713  91.7192  84.7600   C.ar      1 RES1   0.0000
     2 N       94.2672  91.4811  84.4891   N.ar      1 RES1   0.0000
     3 C       93.5177  92.3569  83.7869   C.ar      1 RES1   0.0000
     4 C       94.1446  93.5211  83.3513   C.ar      1 RES1   0.0000
     5 C       95.4807  93.7401  83.6470   C.ar      1 RES1   0.0000
     6 N       96.1951  92.8437  84.3482   N.ar      1 RES1   0.0000
     7 N       95.8025  94.9286  83.1085   N.ar      1 RES1   0.0000
     8 C       94.7219  95.4428  82.4860   C.ar      1 RES1   0.0000
     9 N       93.7002  94.5750  82.6421   N.ar      1 RES1   0.0000
    10 C       97.0444  95.4869  83.1533   C.3       1 RES1   0.0000
    11 C       98.1024  94.5915  82.4756   C.3       1 RES1   0.0000
    12 C       99.1426  95.5925  81.9248   C.3       1 RES1   0.0000
    13 C       98.5357  96.9708  82.2690   C.3       1 RES1   0.0000
    14 O       97.1378  96.6940  82.3916   O.3       1 RES1   0.0000
    15 C       98.8146  98.0427  81.1945   C.3       1 RES1   0.0000
    16 O       97.6377  98.8169  80.9391   O.3       1 RES1   0.0000
    17 P       97.1712  99.2959  79.4846   P.3       1 RES1   0.0000
    18 O       95.7024  99.5461  79.4895   O.2       1 RES1   0.0000
    19 O       97.9362 100.6459  79.0944   O.3       1 RES1   0.0000
    20 O       97.4942  98.1466  78.4179   O.3       1 RES1   0.0000
    21 P       96.2654  97.9239  77.4155   P.3       1 RES1   0.0000
    22 O       95.1158  97.3515  78.1710   O.2       1 RES1   0.0000
    23 O       96.6862  96.8975  76.2626   O.3       1 RES1   0.0000
    24 O       95.8346  99.3145  76.7489   O.3       1 RES1   0.0000
    25 P       94.5467  99.1351  75.8146   P.3       1 RES1   0.0000
    26 O       93.4005  98.6750  76.6479   O.2       1 RES1   0.0000
    27 O       94.1708 100.5311  75.1288   O.3       1 RES1   0.0000
    28 O       94.8420  98.0458  74.6803   O.3       1 RES1   0.0000
    29 O      100.4145  95.4167  82.5599   O.3       1 RES1   0.0000
    30 O       98.6820  93.6433  83.3799   O.3       1 RES1   0.0000
    31 N       92.2164  92.1181  83.5165   N.pl3     1 RES1   0.0000
    32 H1      96.1329  90.9843  85.3253   H         1 RES1   0.0000
    33 H2      94.6755  96.3849  81.9517   H         1 RES1   0.0000
    34 H3      97.3293  95.7007  84.1951   H         1 RES1   0.0000
    35 H4      97.6305  94.0621  81.6335   H         1 RES1   0.0000
    36 H5      99.2336  95.4566  80.8357   H         1 RES1   0.0000
    37 H6      98.9235  97.2933  83.2473   H         1 RES1   0.0000
    38 H7      99.1088  97.5560  80.2528   H         1 RES1   0.0000
    39 H8      99.6273  98.7038  81.5307   H         1 RES1   0.0000
    40 H9      97.7106 101.3288  79.7150   H         1 RES1   0.0000
    41 H10     97.5491  97.1235  75.9362   H         1 RES1   0.0000
    42 H11     94.0473 100.4025  74.1956   H         1 RES1   0.0000
    43 H12     95.6000  98.3130  74.1738   H         1 RES1   0.0000
    44 H13    101.0933  95.2752  81.9099   H         1 RES1   0.0000
    45 H14     99.5775  93.4450  83.1313   H         1 RES1   0.0000
    46 H15     91.7738  91.2496  83.8491   H         1 RES1   0.0000
    47 H16     91.6653  92.8027  82.9787   H         1 RES1   0.0000
    48 ****    93.8479  90.6347  84.8175   Du        1 RES1   0.0000
    49 ****    97.1594  93.0046  84.5587   Du        1 RES1   0.0000
    50 ****    92.7716  94.6947  82.2909   Du        1 RES1   0.0000
    51 ****    96.7273  96.5684  81.4885   Du        1 RES1   0.0000
    52 ****    96.6751  97.4423  82.8669   Du        1 RES1   0.0000
    53 ****    95.0641  98.7764  79.4922   Du        1 RES1   0.0000
    54 ****    95.3549 100.4838  79.4902   Du        1 RES1   0.0000
    55 ****    97.6647 100.9287  78.1744   Du        1 RES1   0.0000
    56 ****    98.9234 100.4880  79.1169   Du        1 RES1   0.0000
    57 ****    94.8834  96.3841  78.0705   Du        1 RES1   0.0000
    58 ****    94.5767  97.9347  78.7787   Du        1 RES1   0.0000
    59 ****    96.0238  96.9463  75.5150   Du        1 RES1   0.0000
    60 ****    96.7028  95.9688  76.6331   Du        1 RES1   0.0000
    61 ****    93.5650  98.1096  77.4560   Du        1 RES1   0.0000
    62 ****    92.4666  98.9317  76.3990   Du        1 RES1   0.0000
    63 ****    94.9108 101.1865  75.2798   Du        1 RES1   0.0000
    64 ****    93.3260 100.8835  75.5314   Du        1 RES1   0.0000
    65 ****    94.0482  97.9694  74.0770   Du        1 RES1   0.0000
    66 ****    95.0222  97.1600  75.1079   Du        1 RES1   0.0000
    67 ****   100.3718  94.6248  83.1692   Du        1 RES1   0.0000
    68 ****   100.6331  96.2349  83.0916   Du        1 RES1   0.0000
    69 ****    98.1426  92.8014  83.3625   Du        1 RES1   0.0000
    70 ****    98.6748  94.0247  84.3042   Du        1 RES1   0.0000
@<TRIPOS>BOND
     1     1     2   ar
     2     2     3   ar
     3     3     4   ar
     4     4     5   ar
     5     5     6   ar
     6     1     6   ar
     7     5     7   ar
     8     7     8   ar
     9     8     9   ar
    10     4     9   ar
    11     7    10    1
    12    10    11    1
    13    11    12    1
    14    12    13    1
    15    13    14    1
    16    10    14    1
    17    13    15    1
    18    15    16    1
    19    16    17    1
    20    17    18    2
    21    17    19    1
    22    17    20    1
    23    20    21    1
    24    21    22    2
    25    21    23    1
    26    21    24    1
    27    24    25    1
    28    25    26    2
    29    25    27    1
    30    25    28    1
    31    12    29    1
    32    11    30    1
    33     3    31    1
    34     1    32    1
    35     8    33    1
    36    10    34    1
    37    11    35    1
    38    12    36    1
    39    13    37    1
    40    15    38    1
    41    15    39    1
    42    19    40    1
    43    23    41    1
    44    27    42    1
    45    28    43    1
    46    29    44    1
    47    30    45    1
    48    31    46    1
    49    31    47    1
    50     2    48    1
    51     6    49    1
    52     9    50    1
    53    14    51    1
    54    14    52    1
    55    18    53    1
    56    18    54    1
    57    19    55    1
    58    19    56    1
    59    22    57    1
    60    22    58    1
    61    23    59    1
    62    23    60    1
    63    26    61    1
    64    26    62    1
    65    27    63    1
    66    27    64    1
    67    28    65    1
    68    28    66    1
    69    29    67    1
    70    29    68    1
    71    30    69    1
    72    30    70    1
@<TRIPOS>SUBSTRUCTURE
     1 RES1        1 GROUP             0 ****  ****    0  
@<TRIPOS>MOLECULE
ATP|ATP|mol2|1|dock3
    70    72     1     0     0
SMALL
NO_CHARGES
****
Generated from the CSD

@<TRIPOS>ATOM
     1 C       97.3023  94.4259  83.3121   C.ar      1 RES1   0.0000
     2 N       98.3159  93.8160  83.9689   N.ar      1 RES1   0.0000
     3 C       99.6010  94.1894  83.7927   C.ar      1 RES1   0.0000
     4 C       99.8418  95.2325  82.9028   C.ar      1 RES1   0.0000
     5 C       98.7842  95.8359  82.2410   C.ar      1 RES1   0.0000
     6 N       97.5171  95.4371  82.4432   N.ar      1 RES1   0.0000
     7 N       99.3162  96.7908  81.4591   N.ar      1 RES1   0.0000
     8 C      100.6553  96.8047  81.6217   C.ar      1 RES1   0.0000
     9 N      100.9764  95.8393  82.5082   N.ar      1 RES1   0.0000
    10 C       98.5945  97.6347  80.6699   C.3       1 RES1   0.0000
    11 C       98.7695  97.3116  79.1714   C.3       1 RES1   0.0000
    12 C       97.4246  97.7328  78.5381   C.3       1 RES1   0.0000
    13 C       96.5782  98.1798  79.7506   C.3       1 RES1   0.0000
    14 O       97.1827  97.4887  80.8472   O.3       1 RES1   0.0000
    15 C       95.0819  97.8301  79.6088   C.3       1 RES1   0.0000
    16 O       94.3201  98.4470  80.6523   O.3       1 RES1   0.0000
    17 P       93.4504  99.7782  80.4680   P.3       1 RES1   0.0000
    18 O       93.0479 100.2996  81.8044   O.2       1 RES1   0.0000
    19 O       94.3203 100.8855  79.7085   O.3       1 RES1   0.0000
    20 O       92.1299  99.4380  79.6289   O.3       1 RES1   0.0000
    21 P       90.8084  99.7182  80.4888   P.3       1 RES1   0.0000
    22 O       90.7650 101.1599  80.8627   O.2       1 RES1   0.0000
    23 O       90.8361  98.8401  81.8260   O.3       1 RES1   0.0000
    24 O       89.5042  99.3411  79.6400   O.3       1 RES1   0.0000
    25 P       88.1676  99.6183  80.4770   P.3       1 RES1   0.0000
    26 O       86.9868  99.2574  79.6431   O.2       1 RES1   0.0000
    27 O       88.1625  98.7300  81.8078   O.3       1 RES1   0.0000
    28 O       88.0798 101.1672  80.8691   O.3       1 RES1   0.0000
    29 O       97.6057  98.8099  77.6111   O.3       1 RES1   0.0000
    30 O       99.8859  97.9942  78.5879   O.3       1 RES1   0.0000
    31 N      100.6118  93.5804  84.4492   N.pl3     1 RES1   0.0000
    32 H1      96.2862  94.0925  83.4887   H         1 RES1   0.0000
    33 H2     101.3554  97.4714  81.1312   H         1 RES1   0.0000
    34 H3      98.8725  98.6801  80.8747   H         1 RES1   0.0000
    35 H4      98.8971  96.2241  79.0568   H         1 RES1   0.0000
    36 H5      96.9739  96.8630  78.0350   H         1 RES1   0.0000
    37 H6      96.7106  99.2631  79.8939   H         1 RES1   0.0000
    38 H7      94.9461  96.7415  79.6908   H         1 RES1   0.0000
    39 H8      94.7117  98.1692  78.6297   H         1 RES1   0.0000
    40 H9      95.1979 100.5530  79.5611   H         1 RES1   0.0000
    41 H10     91.4522  99.2194  82.4417   H         1 RES1   0.0000
    42 H11     87.2662  98.5781  82.0839   H         1 RES1   0.0000
    43 H12     88.0441 101.2533  81.8145   H         1 RES1   0.0000
    44 H13     98.1162  98.5216  76.8630   H         1 RES1   0.0000
    45 H14     99.6791  98.2864  77.7076   H         1 RES1   0.0000
    46 H15    100.4095  92.8107  85.1031   H         1 RES1   0.0000
    47 H16    101.5848  93.8837  84.2973   H         1 RES1   0.0000
    48 ****    98.1076  93.0695  84.6009   Du        1 RES1   0.0000
    49 ****    96.7564  95.8757  81.9649   Du        1 RES1   0.0000
    50 ****   101.8996  95.6134  82.8189   Du        1 RES1   0.0000
    51 ****    96.9280  96.5218  80.8323   Du        1 RES1   0.0000
    52 ****    96.8969  97.8953  81.7150   Du        1 RES1   0.0000
    53 ****    93.3895  99.8613  82.6358   Du        1 RES1   0.0000
    54 ****    92.4361 101.0879  81.8701   Du        1 RES1   0.0000
    55 ****    94.3671 101.7135  80.2673   Du        1 RES1   0.0000
    56 ****    93.8934 101.1000  78.8300   Du        1 RES1   0.0000
    57 ****    91.3390 101.5008  81.6072   Du        1 RES1   0.0000
    58 ****    90.1620 101.7865  80.3691   Du        1 RES1   0.0000
    59 ****    91.1175  97.9062  81.6056   Du        1 RES1   0.0000
    60 ****    89.9233  98.8257  82.2341   Du        1 RES1   0.0000
    61 ****    86.8139  98.3007  79.4087   Du        1 RES1   0.0000
    62 ****    86.3672  99.9717  79.3179   Du        1 RES1   0.0000
    63 ****    88.6573  99.2110  82.5315   Du        1 RES1   0.0000
    64 ****    88.6081  97.8535  81.6251   Du        1 RES1   0.0000
    65 ****    87.2561 101.5666  80.4667   Du        1 RES1   0.0000
    66 ****    88.8863 101.6452  80.5211   Du        1 RES1   0.0000
    67 ****    98.0845  99.5600  78.0673   Du        1 RES1   0.0000
    68 ****    96.7112  99.1277  77.2967   Du        1 RES1   0.0000
    69 ****   100.6683  97.3724  78.5518   Du        1 RES1   0.0000
    70 ****   100.1164  98.7876  79.1513   Du        1 RES1   0.0000
@<TRIPOS>BOND
     1     1     2   ar
     2     2     3   ar
     3     3     4   ar
     4     4     5   ar
     5     5     6   ar
     6     1     6   ar
     7     5     7   ar
     8     7     8   ar
     9     8     9   ar
    10     4     9   ar
    11     7    10    1
    12    10    11    1
    13    11    12    1
    14    12    13    1
    15    13    14    1
    16    10    14    1
    17    13    15    1
    18    15    16    1
    19    16    17    1
    20    17    18    2
    21    17    19    1
    22    17    20    1
    23    20    21    1
    24    21    22    2
    25    21    23    1
    26    21    24    1
    27    24    25    1
    28    25    26    2
    29    25    27    1
    30    25    28    1
    31    12    29    1
    32    11    30    1
    33     3    31    1
    34     1    32    1
    35     8    33    1
    36    10    34    1
    37    11    35    1
    38    12    36    1
    39    13    37    1
    40    15    38    1
    41    15    39    1
    42    19    40    1
    43    23    41    1
    44    27    42    1
    45    28    43    1
    46    29    44    1
    47    30    45    1
    48    31    46    1
    49    31    47    1
    50     2    48    1
    51     6    49    1
    52     9    50    1
    53    14    51    1
    54    14    52    1
    55    18    53    1
    56    18    54    1
    57    19    55    1
    58    19    56    1
    59    22    57    1
    60    22    58    1
    61    23    59    1
    62    23    60    1
    63    26    61    1
    64    26    62    1
    65    27    63    1
    66    27    64    1
    67    28    65    1
    68    28    66    1
    69    29    67    1
    70    29    68    1
    71    30    69    1
    72    30    70    1
@<TRIPOS>SUBSTRUCTURE
     1 RES1        1 GROUP             0 ****  ****    0  
@<TRIPOS>MOLECULE
ATP|ATP|mol2|1|dock19
    70    72     1     0     0
SMALL
NO_CHARGES
****
Generated from the CSD

@<TRIPOS>ATOM
     1 C      103.1432 102.3428  79.7989   C.ar      1 RES1   0.0000
     2 N      104.4813 102.4994  79.9251   N.ar      1 RES1   0.0000
     3 C      105.2652 101.5216  80.4264   C.ar      1 RES1   0.0000
     4 C      104.6373 100.3400  80.8107   C.ar      1 RES1   0.0000
     5 C      103.2645 100.2094  80.6736   C.ar      1 RES1   0.0000
     6 N      102.5167 101.2052  80.1689   N.ar      1 RES1   0.0000
     7 N      102.9494  98.9828  81.1234   N.ar      1 RES1   0.0000
     8 C      104.0736  98.3520  81.5210   C.ar      1 RES1   0.0000
     9 N      105.1115  99.1934  81.3319   N.ar      1 RES1   0.0000
    10 C      101.6919  98.4588  81.1238   C.3       1 RES1   0.0000
    11 C      100.8067  99.0885  82.2194   C.3       1 RES1   0.0000
    12 C       99.3801  99.0271  81.6293   C.3       1 RES1   0.0000
    13 C       99.5982  98.4429  80.2159   C.3       1 RES1   0.0000
    14 O      100.9623  98.7664  79.9325   O.3       1 RES1   0.0000
    15 C       98.6393  99.0325  79.1604   C.3       1 RES1   0.0000
    16 O       97.3490  98.4192  79.2549   O.3       1 RES1   0.0000
    17 P       96.0814  99.0900  79.9661   P.3       1 RES1   0.0000
    18 O       96.3363  99.2099  81.4292   O.2       1 RES1   0.0000
    19 O       95.8308 100.5460  79.3520   O.3       1 RES1   0.0000
    20 O       94.7947  98.1639  79.7419   O.3       1 RES1   0.0000
    21 P       93.9876  97.9520  81.1086   P.3       1 RES1   0.0000
    22 O       93.8314  99.2663  81.7928   O.2       1 RES1   0.0000
    23 O       94.8003  96.9645  82.0699   O.3       1 RES1   0.0000
    24 O       92.5453  97.3243  80.8092   O.3       1 RES1   0.0000
    25 P       92.6710  95.8594  80.1752   P.3       1 RES1   0.0000
    26 O       91.3064  95.3312  79.8944   O.2       1 RES1   0.0000
    27 O       93.5004  95.9251  78.8085   O.3       1 RES1   0.0000
    28 O       93.4116  94.8812  81.2022   O.3       1 RES1   0.0000
    29 O       98.5337  98.1775  82.4128   O.3       1 RES1   0.0000
    30 O      100.9098  98.4016  83.4726   O.3       1 RES1   0.0000
    31 N      106.6006 101.6786  80.5514   N.pl3     1 RES1   0.0000
    32 H1     102.5558 103.1558  79.3881   H         1 RES1   0.0000
    33 H2     104.1392  97.3466  81.9214   H         1 RES1   0.0000
    34 H3     101.7342  97.3651  81.2425   H         1 RES1   0.0000
    35 H4     101.0989 100.1422  82.3477   H         1 RES1   0.0000
    36 H5      98.9649 100.0460  81.5809   H         1 RES1   0.0000
    37 H6      99.4933  97.3484  80.2659   H         1 RES1   0.0000
    38 H7      99.0323  98.8368  78.1518   H         1 RES1   0.0000
    39 H8      98.5450 100.1186  79.3088   H         1 RES1   0.0000
    40 H9      96.2181 101.2009  79.9208   H         1 RES1   0.0000
    41 H10     94.4961  97.0702  82.9635   H         1 RES1   0.0000
    42 H11     94.4272  95.8321  78.9955   H         1 RES1   0.0000
    43 H12     94.2641  94.6446  80.8561   H         1 RES1   0.0000
    44 H13     98.6223  97.2731  82.1345   H         1 RES1   0.0000
    45 H14    100.0980  98.4703  83.9618   H         1 RES1   0.0000
    46 H15    107.0433 102.5619  80.2603   H         1 RES1   0.0000
    47 H16    107.1775 100.9172  80.9374   H         1 RES1   0.0000
    48 ****   104.9000 103.3614  79.6396   Du        1 RES1   0.0000
    49 ****   101.5265 101.1069  80.0703   Du        1 RES1   0.0000
    50 ****   106.0693  98.9984  81.5429   Du        1 RES1   0.0000
    51 ****   101.0510  99.7376  79.7110   Du        1 RES1   0.0000
    52 ****   101.2984  98.2179  79.1670   Du        1 RES1   0.0000
    53 ****    95.5866  99.0857  82.0792   Du        1 RES1   0.0000
    54 ****    97.2571  99.4147  81.7612   Du        1 RES1   0.0000
    55 ****    94.8474 100.7107  79.2755   Du        1 RES1   0.0000
    56 ****    96.2497 100.6020  78.4457   Du        1 RES1   0.0000
    57 ****    94.0435  99.3515  82.7663   Du        1 RES1   0.0000
    58 ****    93.5144 100.0632  81.2785   Du        1 RES1   0.0000
    59 ****    95.7755  97.1807  82.0220   Du        1 RES1   0.0000
    60 ****    94.6537  96.0194  81.7776   Du        1 RES1   0.0000
    61 ****    90.9091  95.4319  78.9822   Du        1 RES1   0.0000
    62 ****    90.7877  94.8761  80.6182   Du        1 RES1   0.0000
    63 ****    93.3373  96.8047  78.3615   Du        1 RES1   0.0000
    64 ****    93.2064  95.1846  78.2042   Du        1 RES1   0.0000
    65 ****    92.8629  94.0550  81.3302   Du        1 RES1   0.0000
    66 ****    93.5257  95.3450  82.0808   Du        1 RES1   0.0000
    67 ****    97.5827  98.4653  82.2997   Du        1 RES1   0.0000
    68 ****    98.7924  98.2526  83.3759   Du        1 RES1   0.0000
    69 ****   101.6509  98.8060  84.0084   Du        1 RES1   0.0000
    70 ****   101.1096  97.4367  83.3024   Du        1 RES1   0.0000
@<TRIPOS>BOND
     1     1     2   ar
     2     2     3   ar
     3     3     4   ar
     4     4     5   ar
     5     5     6   ar
     6     1     6   ar
     7     5     7   ar
     8     7     8   ar
     9     8     9   ar
    10     4     9   ar
    11     7    10    1
    12    10    11    1
    13    11    12    1
    14    12    13    1
    15    13    14    1
    16    10    14    1
    17    13    15    1
    18    15    16    1
    19    16    17    1
    20    17    18    2
    21    17    19    1
    22    17    20    1
    23    20    21    1
    24    21    22    2
    25    21    23    1
    26    21    24    1
    27    24    25    1
    28    25    26    2
    29    25    27    1
    30    25    28    1
    31    12    29    1
    32    11    30    1
    33     3    31    1
    34     1    32    1
    35     8    33    1
    36    10    34    1
    37    11    35    1
    38    12    36    1
    39    13    37    1
    40    15    38    1
    41    15    39    1
    42    19    40    1
    43    23    41    1
    44    27    42    1
    45    28    43    1
    46    29    44    1
    47    30    45    1
    48    31    46    1
    49    31    47    1
    50     2    48    1
    51     6    49    1
    52     9    50    1
    53    14    51    1
    54    14    52    1
    55    18    53    1
    56    18    54    1
    57    19    55    1
    58    19    56    1
    59    22    57    1
    60    22    58    1
    61    23    59    1
    62    23    60    1
    63    26    61    1
    64    26    62    1
    65    27    63    1
    66    27    64    1
    67    28    65    1
    68    28    66    1
    69    29    67    1
    70    29    68    1
    71    30    69    1
    72    30    70    1
@<TRIPOS>SUBSTRUCTURE
     1 RES1        1 GROUP             0 ****  ****    0  
@<TRIPOS>MOLECULE
ATP|ATP|mol2|1|dock8
    70    72     1     0     0
SMALL
NO_CHARGES
****
Generated from the CSD

@<TRIPOS>ATOM
     1 C       97.9131  97.4263  81.6185   C.ar      1 RES1   0.0000
     2 N       99.2433  97.6669  81.5606   N.ar      1 RES1   0.0000
     3 C      100.1503  96.6923  81.7831   C.ar      1 RES1   0.0000
     4 C       99.6584  95.4235  82.0767   C.ar      1 RES1   0.0000
     5 C       98.2907  95.2073  82.1332   C.ar      1 RES1   0.0000
     6 N       97.4179  96.2030  81.9046   N.ar      1 RES1   0.0000
     7 N       98.1201  93.9091  82.4361   N.ar      1 RES1   0.0000
     8 C       99.3266  93.3179  82.5576   C.ar      1 RES1   0.0000
     9 N      100.2726  94.2555  82.3406   N.ar      1 RES1   0.0000
    10 C       96.9098  93.2944  82.5502   C.3       1 RES1   0.0000
    11 C       96.5456  93.0097  84.0222   C.3       1 RES1   0.0000
    12 C       95.0024  93.0825  84.0468   C.3       1 RES1   0.0000
    13 C       94.6362  93.4846  82.6009   C.3       1 RES1   0.0000
    14 O       95.8243  94.1235  82.1256   O.3       1 RES1   0.0000
    15 C       93.4123  94.4212  82.5225   C.3       1 RES1   0.0000
    16 O       92.2210  93.7252  82.9049   O.3       1 RES1   0.0000
    17 P       91.4526  92.6736  81.9742   P.3       1 RES1   0.0000
    18 O       92.4079  91.6298  81.5075   O.2       1 RES1   0.0000
    19 O       90.2768  91.9794  82.8082   O.3       1 RES1   0.0000
    20 O       90.8545  93.4321  80.6974   O.3       1 RES1   0.0000
    21 P       89.9716  92.4448  79.7974   P.3       1 RES1   0.0000
    22 O       89.5324  93.1645  78.5689   O.2       1 RES1   0.0000
    23 O       88.6759  91.9813  80.6135   O.3       1 RES1   0.0000
    24 O       90.8256  91.1531  79.3901   O.3       1 RES1   0.0000
    25 P       91.8987  91.5021  78.2542   P.3       1 RES1   0.0000
    26 O       91.2579  91.3560  76.9171   O.2       1 RES1   0.0000
    27 O       92.4099  93.0081  78.4301   O.3       1 RES1   0.0000
    28 O       93.1434  90.5013  78.3523   O.3       1 RES1   0.0000
    29 O       94.4314  91.8140  84.3890   O.3       1 RES1   0.0000
    30 O       97.0403  91.7443  84.4769   O.3       1 RES1   0.0000
    31 N      101.4777  96.9333  81.7244   N.pl3     1 RES1   0.0000
    32 H1      97.2234  98.2408  81.4296   H         1 RES1   0.0000
    33 H2      99.5109  92.2746  82.7873   H         1 RES1   0.0000
    34 H3      96.8975  92.3636  81.9622   H         1 RES1   0.0000
    35 H4      96.9546  93.8164  84.6499   H         1 RES1   0.0000
    36 H5      94.6884  93.8536  84.7678   H         1 RES1   0.0000
    37 H6      94.4622  92.5703  82.0132   H         1 RES1   0.0000
    38 H7      93.2800  94.7728  81.4885   H         1 RES1   0.0000
    39 H8      93.5638  95.2874  83.1838   H         1 RES1   0.0000
    40 H9      90.6435  91.3170  83.3818   H         1 RES1   0.0000
    41 H10     88.7579  92.2535  81.5199   H         1 RES1   0.0000
    42 H11     92.3402  93.4654  77.6003   H         1 RES1   0.0000
    43 H12     92.8708  89.6972  78.7784   H         1 RES1   0.0000
    44 H13     93.5572  91.7345  84.0246   H         1 RES1   0.0000
    45 H14     97.4040  91.8197  85.3516   H         1 RES1   0.0000
    46 H15    101.8185  97.8803  81.5052   H         1 RES1   0.0000
    47 H16    102.1502  96.1724  81.8986   H         1 RES1   0.0000
    48 ****    99.5627  98.5903  81.3474   Du        1 RES1   0.0000
    49 ****    96.4316  96.0430  81.9451   Du        1 RES1   0.0000
    50 ****   101.2612  94.1076  82.3708   Du        1 RES1   0.0000
    51 ****    95.9096  95.0382  82.5207   Du        1 RES1   0.0000
    52 ****    95.8077  94.1916  81.1281   Du        1 RES1   0.0000
    53 ****    93.3834  91.8391  81.4401   Du        1 RES1   0.0000
    54 ****    92.0735  90.7200  81.2617   Du        1 RES1   0.0000
    55 ****    89.6283  91.5524  82.1779   Du        1 RES1   0.0000
    56 ****    89.8040  92.6698  83.3557   Du        1 RES1   0.0000
    57 ****    88.6051  93.5343  78.5107   Du        1 RES1   0.0000
    58 ****    90.1650  93.2779  77.8027   Du        1 RES1   0.0000
    59 ****    88.5937  90.9856  80.5708   Du        1 RES1   0.0000
    60 ****    87.8616  92.4005  80.2121   Du        1 RES1   0.0000
    61 ****    91.7831  90.9915  76.1481   Du        1 RES1   0.0000
    62 ****    90.3027  91.6224  76.7886   Du        1 RES1   0.0000
    63 ****    93.3642  93.0034  78.7289   Du        1 RES1   0.0000
    64 ****    91.8486  93.4728  79.1150   Du        1 RES1   0.0000
    65 ****    93.8740  90.9293  78.8842   Du        1 RES1   0.0000
    66 ****    93.4778  90.2944  77.4329   Du        1 RES1   0.0000
    67 ****    94.3820  91.7328  85.3845   Du        1 RES1   0.0000
    68 ****    95.0084  91.0837  84.0233   Du        1 RES1   0.0000
    69 ****    97.7531  91.4268  83.8515   Du        1 RES1   0.0000
    70 ****    96.2896  91.0839  84.4895   Du        1 RES1   0.0000
@<TRIPOS>BOND
     1     1     2   ar
     2     2     3   ar
     3     3     4   ar
     4     4     5   ar
     5     5     6   ar
     6     1     6   ar
     7     5     7   ar
     8     7     8   ar
     9     8     9   ar
    10     4     9   ar
    11     7    10    1
    12    10    11    1
    13    11    12    1
    14    12    13    1
    15    13    14    1
    16    10    14    1
    17    13    15    1
    18    15    16    1
    19    16    17    1
    20    17    18    2
    21    17    19    1
    22    17    20    1
    23    20    21    1
    24    21    22    2
    25    21    23    1
    26    21    24    1
    27    24    25    1
    28    25    26    2
    29    25    27    1
    30    25    28    1
    31    12    29    1
    32    11    30    1
    33     3    31    1
    34     1    32    1
    35     8    33    1
    36    10    34    1
    37    11    35    1
    38    12    36    1
    39    13    37    1
    40    15    38    1
    41    15    39    1
    42    19    40    1
    43    23    41    1
    44    27    42    1
    45    28    43    1
    46    29    44    1
    47    30    45    1
    48    31    46    1
    49    31    47    1
    50     2    48    1
    51     6    49    1
    52     9    50    1
    53    14    51    1
    54    14    52    1
    55    18    53    1
    56    18    54    1
    57    19    55    1
    58    19    56    1
    59    22    57    1
    60    22    58    1
    61    23    59    1
    62    23    60    1
    63    26    61    1
    64    26    62    1
    65    27    63    1
    66    27    64    1
    67    28    65    1
    68    28    66    1
    69    29    67    1
    70    29    68    1
    71    30    69    1
    72    30    70    1
@<TRIPOS>SUBSTRUCTURE
     1 RES1        1 GROUP             0 ****  ****    0  
@<TRIPOS>MOLECULE
ATP|ATP|mol2|1|dock1
    70    72     1     0     0
SMALL
NO_CHARGES
****
Generated from the CSD

@<TRIPOS>ATOM
     1 C      100.3931 100.9953  77.4788   C.ar      1 RES1   0.0000
     2 N      101.6633 101.4465  77.5961   N.ar      1 RES1   0.0000
     3 C      102.5304 100.9024  78.4759   C.ar      1 RES1   0.0000
     4 C      102.0615  99.8533  79.2618   C.ar      1 RES1   0.0000
     5 C      100.7543  99.4147  79.1227   C.ar      1 RES1   0.0000
     6 N       99.9201  99.9810  78.2344   N.ar      1 RES1   0.0000
     7 N      100.5914  98.4107  80.0011   N.ar      1 RES1   0.0000
     8 C      101.7477  98.2086  80.6658   C.ar      1 RES1   0.0000
     9 N      102.6502  99.1031  80.2114   N.ar      1 RES1   0.0000
    10 C       99.4447  97.6900  80.1476   C.3       1 RES1   0.0000
    11 C       99.4716  96.8186  81.4205   C.3       1 RES1   0.0000
    12 C       97.9887  96.7311  81.8457   C.3       1 RES1   0.0000
    13 C       97.2647  97.6313  80.8201   C.3       1 RES1   0.0000
    14 O       98.2964  98.5136  80.3698   O.3       1 RES1   0.0000
    15 C       96.0741  98.4047  81.4247   C.3       1 RES1   0.0000
    16 O       94.9810  98.4476  80.5010   O.3       1 RES1   0.0000
    17 P       94.3202  99.7965  79.9475   P.3       1 RES1   0.0000
    18 O       93.7186 100.5574  81.0786   O.2       1 RES1   0.0000
    19 O       95.4429 100.6938  79.2445   O.3       1 RES1   0.0000
    20 O       93.1652  99.4315  78.9006   O.3       1 RES1   0.0000
    21 P       91.9307  98.7142  79.6258   P.3       1 RES1   0.0000
    22 O       92.4435  97.6139  80.4897   O.2       1 RES1   0.0000
    23 O       90.9459  98.0916  78.5293   O.3       1 RES1   0.0000
    24 O       91.1227  99.7696  80.5185   O.3       1 RES1   0.0000
    25 P       89.8669  99.0816  81.2350   P.3       1 RES1   0.0000
    26 O       89.8091  97.6452  80.8433   O.2       1 RES1   0.0000
    27 O       90.0196  99.1871  82.8243   O.3       1 RES1   0.0000
    28 O       88.5142  99.8049  80.7798   O.3       1 RES1   0.0000
    29 O       97.5105  95.3825  81.7753   O.3       1 RES1   0.0000
    30 O      100.0517  95.5286  81.1924   O.3       1 RES1   0.0000
    31 N      103.7981 101.3529  78.5918   N.pl3     1 RES1   0.0000
    32 H1      99.7345 101.4626  76.7558   H         1 RES1   0.0000
    33 H2     101.9276  97.4610  81.4300   H         1 RES1   0.0000
    34 H3      99.2687  97.0674  79.2568   H         1 RES1   0.0000
    35 H4     100.0394  97.3493  82.2002   H         1 RES1   0.0000
    36 H5      97.8821  97.1249  82.8686   H         1 RES1   0.0000
    37 H6      96.9329  97.0086  79.9753   H         1 RES1   0.0000
    38 H7      96.3752  99.4409  81.6388   H         1 RES1   0.0000
    39 H8      95.7513  97.9203  82.3584   H         1 RES1   0.0000
    40 H9      95.6312 101.4495  79.7884   H         1 RES1   0.0000
    41 H10     90.0451  98.2276  78.7984   H         1 RES1   0.0000
    42 H11     90.2439  98.3345  83.1783   H         1 RES1   0.0000
    43 H12     88.5227 100.7079  81.0748   H         1 RES1   0.0000
    44 H13     96.9991  95.2526  80.9848   H         1 RES1   0.0000
    45 H14    100.4535  95.4877  80.3321   H         1 RES1   0.0000
    46 H15    104.1229 102.1305  77.9995   H         1 RES1   0.0000
    47 H16    104.4409 100.9210  79.2714   H         1 RES1   0.0000
    48 ****   101.9674 102.2023  77.0162   Du        1 RES1   0.0000
    49 ****    98.9778  99.6611  78.1359   Du        1 RES1   0.0000
    50 ****   103.5950  99.1931  80.5264   Du        1 RES1   0.0000
    51 ****    98.4927  99.2039  81.0662   Du        1 RES1   0.0000
    52 ****    98.0224  98.9652  79.5208   Du        1 RES1   0.0000
    53 ****    94.1116 101.4339  81.3566   Du        1 RES1   0.0000
    54 ****    92.9220 100.1915  81.5597   Du        1 RES1   0.0000
    55 ****    95.1138 100.9999  78.3512   Du        1 RES1   0.0000
    56 ****    96.2756 100.1530  79.1256   Du        1 RES1   0.0000
    57 ****    93.2319  97.7712  81.0844   Du        1 RES1   0.0000
    58 ****    91.9993  96.7181  80.4747   Du        1 RES1   0.0000
    59 ****    91.1229  97.1114  78.4408   Du        1 RES1   0.0000
    60 ****    91.1018  98.5393  77.6488   Du        1 RES1   0.0000
    61 ****    89.1786  97.0248  81.3096   Du        1 RES1   0.0000
    62 ****    90.4009  97.3016  80.1140   Du        1 RES1   0.0000
    63 ****    89.1560  99.4965  83.2222   Du        1 RES1   0.0000
    64 ****    90.7425  99.8411  83.0470   Du        1 RES1   0.0000
    65 ****    87.7310  99.3304  81.1817   Du        1 RES1   0.0000
    66 ****    88.4426  99.7807  79.7826   Du        1 RES1   0.0000
    67 ****    96.9376  95.1942  82.5730   Du        1 RES1   0.0000
    68 ****    98.2903  94.7565  81.7697   Du        1 RES1   0.0000
    69 ****    99.3371  94.8319  81.2542   Du        1 RES1   0.0000
    70 ****   100.7483  95.3544  81.8884   Du        1 RES1   0.0000
@<TRIPOS>BOND
     1     1     2   ar
     2     2     3   ar
     3     3     4   ar
     4     4     5   ar
     5     5     6   ar
     6     1     6   ar
     7     5     7   ar
     8     7     8   ar
     9     8     9   ar
    10     4     9   ar
    11     7    10    1
    12    10    11    1
    13    11    12    1
    14    12    13    1
    15    13    14    1
    16    10    14    1
    17    13    15    1
    18    15    16    1
    19    16    17    1
    20    17    18    2
    21    17    19    1
    22    17    20    1
    23    20    21    1
    24    21    22    2
    25    21    23    1
    26    21    24    1
    27    24    25    1
    28    25    26    2
    29    25    27    1
    30    25    28    1
    31    12    29    1
    32    11    30    1
    33     3    31    1
    34     1    32    1
    35     8    33    1
    36    10    34    1
    37    11    35    1
    38    12    36    1
    39    13    37    1
    40    15    38    1
    41    15    39    1
    42    19    40    1
    43    23    41    1
    44    27    42    1
    45    28    43    1
    46    29    44    1
    47    30    45    1
    48    31    46    1
    49    31    47    1
    50     2    48    1
    51     6    49    1
    52     9    50    1
    53    14    51    1
    54    14    52    1
    55    18    53    1
    56    18    54    1
    57    19    55    1
    58    19    56    1
    59    22    57    1
    60    22    58    1
    61    23    59    1
    62    23    60    1
    63    26    61    1
    64    26    62    1
    65    27    63    1
    66    27    64    1
    67    28    65    1
    68    28    66    1
    69    29    67    1
    70    29    68    1
    71    30    69    1
    72    30    70    1
@<TRIPOS>SUBSTRUCTURE
     1 RES1        1 GROUP             0 ****  ****    0  
@<TRIPOS>MOLECULE
ATP|ATP|mol2|1|dock2
    70    72     1     0     0
SMALL
NO_CHARGES
****
Generated from the CSD

@<TRIPOS>ATOM
     1 C      103.9860 102.9762  80.1055   C.ar      1 RES1   0.0000
     2 N      105.2460 102.4878  80.1745   N.ar      1 RES1   0.0000
     3 C      105.5042 101.2611  80.6751   C.ar      1 RES1   0.0000
     4 C      104.4157 100.5160  81.1201   C.ar      1 RES1   0.0000
     5 C      103.1367 101.0436  81.0407   C.ar      1 RES1   0.0000
     6 N      102.9187 102.2692  80.5348   N.ar      1 RES1   0.0000
     7 N      102.3063 100.1125  81.5403   N.ar      1 RES1   0.0000
     8 C      103.0221  99.0316  81.9133   C.ar      1 RES1   0.0000
     9 N      104.3225  99.2858  81.6578   N.ar      1 RES1   0.0000
    10 C      100.9516 100.2399  81.6060   C.3       1 RES1   0.0000
    11 C      100.2813  99.9669  80.2434   C.3       1 RES1   0.0000
    12 C       98.8973  99.3898  80.6159   C.3       1 RES1   0.0000
    13 C       98.9417  99.3107  82.1581   C.3       1 RES1   0.0000
    14 O      100.3418  99.2550  82.4451   O.3       1 RES1   0.0000
    15 C       98.1922  98.0868  82.7253   C.3       1 RES1   0.0000
    16 O       99.0764  96.9672  82.8460   O.3       1 RES1   0.0000
    17 P       99.5556  96.0597  81.6174   P.3       1 RES1   0.0000
    18 O       98.9278  96.5524  80.3592   O.2       1 RES1   0.0000
    19 O      101.1477  96.1406  81.4808   O.3       1 RES1   0.0000
    20 O       99.0958  94.5461  81.8641   O.3       1 RES1   0.0000
    21 P       98.2313  94.4140  83.2055   P.3       1 RES1   0.0000
    22 O       99.0382  94.9059  84.3574   O.2       1 RES1   0.0000
    23 O       97.8549  92.8797  83.4583   O.3       1 RES1   0.0000
    24 O       96.8848  95.2719  83.0841   O.3       1 RES1   0.0000
    25 P       95.6168  94.4351  83.5901   P.3       1 RES1   0.0000
    26 O       95.9421  93.8009  84.8985   O.2       1 RES1   0.0000
    27 O       94.3596  95.4074  83.7755   O.3       1 RES1   0.0000
    28 O       95.2564  93.2936  82.5283   O.3       1 RES1   0.0000
    29 O       97.8426 100.2529  80.1746   O.3       1 RES1   0.0000
    30 O      100.1823 101.1442  79.4329   O.3       1 RES1   0.0000
    31 N      106.7619 100.7742  80.7430   N.pl3     1 RES1   0.0000
    32 H1     103.8284 103.9661  79.6928   H         1 RES1   0.0000
    33 H2     102.6287  98.1168  82.3418   H         1 RES1   0.0000
    34 H3     100.6799 101.2404  81.9766   H         1 RES1   0.0000
    35 H4     100.8617  99.1971  79.7119   H         1 RES1   0.0000
    36 H5      98.7901  98.3897  80.1674   H         1 RES1   0.0000
    37 H6      98.5287 100.2434  82.5718   H         1 RES1   0.0000
    38 H7      97.3782  97.8013  82.0426   H         1 RES1   0.0000
    39 H8      97.7697  98.3332  83.7109   H         1 RES1   0.0000
    40 H9     101.4958  95.2731  81.3118   H         1 RES1   0.0000
    41 H10     96.9603  92.7226  83.1802   H         1 RES1   0.0000
    42 H11     94.6575  96.3091  83.8017   H         1 RES1   0.0000
    43 H12     95.8816  92.5823  82.6030   H         1 RES1   0.0000
    44 H13     97.5898 100.8500  80.8695   H         1 RES1   0.0000
    45 H14    100.9549 101.6883  79.5339   H         1 RES1   0.0000
    46 H15    107.5519 101.3437  80.4076   H         1 RES1   0.0000
    47 H16    106.9331  99.8347  81.1298   H         1 RES1   0.0000
    48 ****   106.0052 103.0498  79.8463   Du        1 RES1   0.0000
    49 ****   101.9943 102.6462  80.4779   Du        1 RES1   0.0000
    50 ****   105.0865  98.6660  81.8373   Du        1 RES1   0.0000
    51 ****   100.7041  98.3468  82.2358   Du        1 RES1   0.0000
    52 ****   100.5085  99.4666  83.4081   Du        1 RES1   0.0000
    53 ****    98.3635  95.9377  79.8080   Du        1 RES1   0.0000
    54 ****    99.0707  97.4976  80.0659   Du        1 RES1   0.0000
    55 ****   101.5375  96.4964  82.3302   Du        1 RES1   0.0000
    56 ****   101.3868  96.7489  80.7239   Du        1 RES1   0.0000
    57 ****    99.2061  94.3085  85.1416   Du        1 RES1   0.0000
    58 ****    99.4119  95.8334  84.3464   Du        1 RES1   0.0000
    59 ****    97.9425  92.6712  84.4324   Du        1 RES1   0.0000
    60 ****    98.4742  92.2941  82.9351   Du        1 RES1   0.0000
    61 ****    96.5588  93.0145  84.9333   Du        1 RES1   0.0000
    62 ****    95.5436  94.1616  85.7417   Du        1 RES1   0.0000
    63 ****    93.8906  95.1864  84.6306   Du        1 RES1   0.0000
    64 ****    93.7291  95.2868  83.0088   Du        1 RES1   0.0000
    65 ****    95.2935  93.6742  81.6043   Du        1 RES1   0.0000
    66 ****    94.3356  92.9484  82.7098   Du        1 RES1   0.0000
    67 ****    97.0522  99.6994  79.9121   Du        1 RES1   0.0000
    68 ****    98.1571 100.7803  79.3853   Du        1 RES1   0.0000
    69 ****    99.3753 101.6660  79.7094   Du        1 RES1   0.0000
    70 ****   100.0932 100.8757  78.4738   Du        1 RES1   0.0000
@<TRIPOS>BOND
     1     1     2   ar
     2     2     3   ar
     3     3     4   ar
     4     4     5   ar
     5     5     6   ar
     6     1     6   ar
     7     5     7   ar
     8     7     8   ar
     9     8     9   ar
    10     4     9   ar
    11     7    10    1
    12    10    11    1
    13    11    12    1
    14    12    13    1
    15    13    14    1
    16    10    14    1
    17    13    15    1
    18    15    16    1
    19    16    17    1
    20    17    18    2
    21    17    19    1
    22    17    20    1
    23    20    21    1
    24    21    22    2
    25    21    23    1
    26    21    24    1
    27    24    25    1
    28    25    26    2
    29    25    27    1
    30    25    28    1
    31    12    29    1
    32    11    30    1
    33     3    31    1
    34     1    32    1
    35     8    33    1
    36    10    34    1
    37    11    35    1
    38    12    36    1
    39    13    37    1
    40    15    38    1
    41    15    39    1
    42    19    40    1
    43    23    41    1
    44    27    42    1
    45    28    43    1
    46    29    44    1
    47    30    45    1
    48    31    46    1
    49    31    47    1
    50     2    48    1
    51     6    49    1
    52     9    50    1
    53    14    51    1
    54    14    52    1
    55    18    53    1
    56    18    54    1
    57    19    55    1
    58    19    56    1
    59    22    57    1
    60    22    58    1
    61    23    59    1
    62    23    60    1
    63    26    61    1
    64    26    62    1
    65    27    63    1
    66    27    64    1
    67    28    65    1
    68    28    66    1
    69    29    67    1
    70    29    68    1
    71    30    69    1
    72    30    70    1
@<TRIPOS>SUBSTRUCTURE
     1 RES1        1 GROUP             0 ****  ****    0  
@<TRIPOS>MOLECULE
ATP|ATP|mol2|1|dock10
    70    72     1     0     0
SMALL
NO_CHARGES
****
Generated from the CSD

@<TRIPOS>ATOM
     1 C      102.5377 101.6193  81.8561   C.ar      1 RES1   0.0000
     2 N      103.2650 102.1682  80.8557   N.ar      1 RES1   0.0000
     3 C      103.2226 101.6798  79.5981   C.ar      1 RES1   0.0000
     4 C      102.3963 100.5825  79.3717   C.ar      1 RES1   0.0000
     5 C      101.6660 100.0386  80.4164   C.ar      1 RES1   0.0000
     6 N      101.7334 100.5534  81.6558   N.ar      1 RES1   0.0000
     7 N      100.9760  99.0052  79.9044   N.ar      1 RES1   0.0000
     8 C      101.2452  98.8992  78.5868   C.ar      1 RES1   0.0000
     9 N      102.1251  99.8697  78.2629   N.ar      1 RES1   0.0000
    10 C      100.1083  98.2287  80.6115   C.3       1 RES1   0.0000
    11 C      100.5178  98.1123  82.0945   C.3       1 RES1   0.0000
    12 C       99.1761  97.9402  82.8410   C.3       1 RES1   0.0000
    13 C       98.1204  98.0582  81.7193   C.3       1 RES1   0.0000
    14 O       98.8005  98.8008  80.7036   O.3       1 RES1   0.0000
    15 C       96.8264  98.7647  82.1751   C.3       1 RES1   0.0000
    16 O       95.8880  98.8403  81.0965   O.3       1 RES1   0.0000
    17 P       94.4737  98.0906  81.0771   P.3       1 RES1   0.0000
    18 O       94.6768  96.6366  81.3310   O.2       1 RES1   0.0000
    19 O       93.5292  98.6993  82.2161   O.3       1 RES1   0.0000
    20 O       93.7959  98.2723  79.6381   O.3       1 RES1   0.0000
    21 P       94.7765  97.7851  78.4696   P.3       1 RES1   0.0000
    22 O       94.1410  96.6529  77.7385   O.2       1 RES1   0.0000
    23 O       96.1589  97.2810  79.0979   O.3       1 RES1   0.0000
    24 O       95.0689  98.9875  77.4537   O.3       1 RES1   0.0000
    25 P       96.0688  98.5321  76.2889   P.3       1 RES1   0.0000
    26 O       95.3015  98.3761  75.0213   O.2       1 RES1   0.0000
    27 O       97.2061  99.6385  76.0819   O.3       1 RES1   0.0000
    28 O       96.7477  97.1335  76.6674   O.3       1 RES1   0.0000
    29 O       99.1037  96.6621  83.4840   O.3       1 RES1   0.0000
    30 O      101.4193  97.0245  82.3328   O.3       1 RES1   0.0000
    31 N      103.9483 102.2286  78.6003   N.pl3     1 RES1   0.0000
    32 H1     102.6028 102.0485  82.8492   H         1 RES1   0.0000
    33 H2     100.8306  98.1672  77.9029   H         1 RES1   0.0000
    34 H3     100.0286  97.2309  80.1533   H         1 RES1   0.0000
    35 H4     100.9857  99.0585  82.4074   H         1 RES1   0.0000
    36 H5      99.0668  98.7499  83.5795   H         1 RES1   0.0000
    37 H6      97.8971  97.0506  81.3367   H         1 RES1   0.0000
    38 H7      97.0572  99.7921  82.4936   H         1 RES1   0.0000
    39 H8      96.3795  98.2155  83.0172   H         1 RES1   0.0000
    40 H9      93.6059  98.1756  83.0049   H         1 RES1   0.0000
    41 H10     96.1696  96.3314  79.1199   H         1 RES1   0.0000
    42 H11     98.0594  99.2469  76.2279   H         1 RES1   0.0000
    43 H12     97.5737  97.0469  76.2062   H         1 RES1   0.0000
    44 H13     99.5551  96.6852  84.3201   H         1 RES1   0.0000
    45 H14    101.1172  96.2355  81.8978   H         1 RES1   0.0000
    46 H15    104.5528 103.0404  78.7915   H         1 RES1   0.0000
    47 H16    103.8990 101.8372  77.6485   H         1 RES1   0.0000
    48 ****   103.8488 102.9558  81.0532   Du        1 RES1   0.0000
    49 ****   101.2039 100.1590  82.4069   Du        1 RES1   0.0000
    50 ****   102.5099 100.0315  77.3542   Du        1 RES1   0.0000
    51 ****    98.8599  99.7659  80.9587   Du        1 RES1   0.0000
    52 ****    98.3210  98.7158  79.8302   Du        1 RES1   0.0000
    53 ****    94.6109  95.9833  80.5768   Du        1 RES1   0.0000
    54 ****    94.8791  96.3139  82.2557   Du        1 RES1   0.0000
    55 ****    92.5800  98.6910  81.9015   Du        1 RES1   0.0000
    56 ****    93.8071  99.6397  82.4122   Du        1 RES1   0.0000
    57 ****    93.1558  96.6587  77.5670   Du        1 RES1   0.0000
    58 ****    94.6996  95.8874  77.4195   Du        1 RES1   0.0000
    59 ****    96.2517  97.6369  80.0278   Du        1 RES1   0.0000
    60 ****    96.9191  97.6099  78.5377   Du        1 RES1   0.0000
    61 ****    95.0783  99.1798  74.4698   Du        1 RES1   0.0000
    62 ****    95.0097  97.4676  74.7221   Du        1 RES1   0.0000
    63 ****    97.0666 100.3855  76.7318   Du        1 RES1   0.0000
    64 ****    97.1583  99.9951  75.1489   Du        1 RES1   0.0000
    65 ****    96.1388  96.3853  76.4037   Du        1 RES1   0.0000
    66 ****    96.9112  97.0984  77.6533   Du        1 RES1   0.0000
    67 ****    99.5310  95.9738  82.8979   Du        1 RES1   0.0000
    68 ****    98.1444  96.4228  83.6342   Du        1 RES1   0.0000
    69 ****   101.4764  96.8553  83.3168   Du        1 RES1   0.0000
    70 ****   102.3245  97.2659  81.9831   Du        1 RES1   0.0000
@<TRIPOS>BOND
     1     1     2   ar
     2     2     3   ar
     3     3     4   ar
     4     4     5   ar
     5     5     6   ar
     6     1     6   ar
     7     5     7   ar
     8     7     8   ar
     9     8     9   ar
    10     4     9   ar
    11     7    10    1
    12    10    11    1
    13    11    12    1
    14    12    13    1
    15    13    14    1
    16    10    14    1
    17    13    15    1
    18    15    16    1
    19    16    17    1
    20    17    18    2
    21    17    19    1
    22    17    20    1
    23    20    21    1
    24    21    22    2
    25    21    23    1
    26    21    24    1
    27    24    25    1
    28    25    26    2
    29    25    27    1
    30    25    28    1
    31    12    29    1
    32    11    30    1
    33     3    31    1
    34     1    32    1
    35     8    33    1
    36    10    34    1
    37    11    35    1
    38    12    36    1
    39    13    37    1
    40    15    38    1
    41    15    39    1
    42    19    40    1
    43    23    41    1
    44    27    42    1
    45    28    43    1
    46    29    44    1
    47    30    45    1
    48    31    46    1
    49    31    47    1
    50     2    48    1
    51     6    49    1
    52     9    50    1
    53    14    51    1
    54    14    52    1
    55    18    53    1
    56    18    54    1
    57    19    55    1
    58    19    56    1
    59    22    57    1
    60    22    58    1
    61    23    59    1
    62    23    60    1
    63    26    61    1
    64    26    62    1
    65    27    63    1
    66    27    64    1
    67    28    65    1
    68    28    66    1
    69    29    67    1
    70    29    68    1
    71    30    69    1
    72    30    70    1
@<TRIPOS>SUBSTRUCTURE
     1 RES1        1 GROUP             0 ****  ****    0  
@<TRIPOS>MOLECULE
ATP|ATP|mol2|1|dock14
    70    72     1     0     0
SMALL
NO_CHARGES
****
Generated from the CSD

@<TRIPOS>ATOM
     1 C      105.7084  98.9520  82.2053   C.ar      1 RES1   0.0000
     2 N      106.3519 100.0683  81.7923   N.ar      1 RES1   0.0000
     3 C      105.7402 100.9969  81.0271   C.ar      1 RES1   0.0000
     4 C      104.4139 100.7574  80.6783   C.ar      1 RES1   0.0000
     5 C      103.7815  99.6033  81.1125   C.ar      1 RES1   0.0000
     6 N      104.4234  98.7016  81.8745   N.ar      1 RES1   0.0000
     7 N      102.5302  99.6449  80.6239   N.ar      1 RES1   0.0000
     8 C      102.3660 100.7818  79.9166   C.ar      1 RES1   0.0000
     9 N      103.5307 101.4627  79.9478   N.ar      1 RES1   0.0000
    10 C      101.5769  98.7005  80.8583   C.3       1 RES1   0.0000
    11 C      100.5261  99.1847  81.8790   C.3       1 RES1   0.0000
    12 C       99.2312  98.4542  81.4584   C.3       1 RES1   0.0000
    13 C       99.6472  97.6852  80.1848   C.3       1 RES1   0.0000
    14 O      100.7744  98.4246  79.7068   O.3       1 RES1   0.0000
    15 C       98.5248  97.6069  79.1288   C.3       1 RES1   0.0000
    16 O       97.2451  97.5007  79.7620   O.3       1 RES1   0.0000
    17 P       95.8712  97.9982  79.1082   P.3       1 RES1   0.0000
    18 O       96.1178  98.4425  77.7076   O.2       1 RES1   0.0000
    19 O       94.8143  96.7970  79.1036   O.3       1 RES1   0.0000
    20 O       95.3009  99.2362  79.9483   O.3       1 RES1   0.0000
    21 P       94.8577 100.4358  78.9846   P.3       1 RES1   0.0000
    22 O       94.0421  99.8873  77.8648   O.2       1 RES1   0.0000
    23 O       96.1543 101.1488  78.3760   O.3       1 RES1   0.0000
    24 O       93.9995 101.5139  79.7999   O.3       1 RES1   0.0000
    25 P       93.4587 102.6729  78.8365   P.3       1 RES1   0.0000
    26 O       92.6471 103.6325  79.6367   O.2       1 RES1   0.0000
    27 O       94.6898 103.4509  78.1738   O.3       1 RES1   0.0000
    28 O       92.5432 102.0434  77.6850   O.3       1 RES1   0.0000
    29 O       98.7904  97.5546  82.4824   O.3       1 RES1   0.0000
    30 O      100.9002  98.8984  83.2321   O.3       1 RES1   0.0000
    31 N      106.3830 102.1110  80.6159   N.pl3     1 RES1   0.0000
    32 H1     106.2410  98.2362  82.8209   H         1 RES1   0.0000
    33 H2     101.4610 101.0993  79.4112   H         1 RES1   0.0000
    34 H3     102.0436  97.7635  81.1994   H         1 RES1   0.0000
    35 H4     100.3851 100.2693  81.7537   H         1 RES1   0.0000
    36 H5      98.4510  99.1996  81.2382   H         1 RES1   0.0000
    37 H6      99.9781  96.6759  80.4737   H         1 RES1   0.0000
    38 H7      98.6662  96.7134  78.5028   H         1 RES1   0.0000
    39 H8      98.5498  98.5038  78.4920   H         1 RES1   0.0000
    40 H9      95.1845  96.0473  79.5544   H         1 RES1   0.0000
    41 H10     96.4396 101.8408  78.9609   H         1 RES1   0.0000
    42 H11     95.4247 103.4527  78.7759   H         1 RES1   0.0000
    43 H12     93.0871 101.8001  76.9451   H         1 RES1   0.0000
    44 H13     98.4630  98.0393  83.2315   H         1 RES1   0.0000
    45 H14    100.5001  98.0887  83.5278   H         1 RES1   0.0000
    46 H15    107.3646 102.2670  80.8865   H         1 RES1   0.0000
    47 H16    105.8942 102.8051  80.0320   H         1 RES1   0.0000
    48 ****   107.3048 100.2089  82.0607   Du        1 RES1   0.0000
    49 ****   103.9634  97.8705  82.1870   Du        1 RES1   0.0000
    50 ****   103.7074 102.3411  79.5038   Du        1 RES1   0.0000
    51 ****   100.4752  99.2773  79.2786   Du        1 RES1   0.0000
    52 ****   101.2910  97.8822  79.0443   Du        1 RES1   0.0000
    53 ****    95.3544  98.7469  77.1379   Du        1 RES1   0.0000
    54 ****    97.0467  98.4363  77.3373   Du        1 RES1   0.0000
    55 ****    94.5996  96.5457  78.1598   Du        1 RES1   0.0000
    56 ****    93.9783  97.0868  79.5697   Du        1 RES1   0.0000
    57 ****    93.3890  99.1497  78.0364   Du        1 RES1   0.0000
    58 ****    94.1477 100.2568  76.9416   Du        1 RES1   0.0000
    59 ****    95.9317 101.5384  77.4823   Du        1 RES1   0.0000
    60 ****    96.8871 100.4762  78.2732   Du        1 RES1   0.0000
    61 ****    92.6033 103.5422  80.6316   Du        1 RES1   0.0000
    62 ****    92.1460 104.3669  79.1788   Du        1 RES1   0.0000
    63 ****    94.4202 104.3930  77.9742   Du        1 RES1   0.0000
    64 ****    94.9553 102.9933  77.3252   Du        1 RES1   0.0000
    65 ****    91.8649 102.7175  77.3927   Du        1 RES1   0.0000
    66 ****    92.0765 101.2319  78.0366   Du        1 RES1   0.0000
    67 ****    99.5580  96.9820  82.7705   Du        1 RES1   0.0000
    68 ****    98.0602  96.9754  82.1201   Du        1 RES1   0.0000
    69 ****   100.5986  99.6478  83.8215   Du        1 RES1   0.0000
    70 ****   101.8950  98.8116  83.2861   Du        1 RES1   0.0000
@<TRIPOS>BOND
     1     1     2   ar
     2     2     3   ar
     3     3     4   ar
     4     4     5   ar
     5     5     6   ar
     6     1     6   ar
     7     5     7   ar
     8     7     8   ar
     9     8     9   ar
    10     4     9   ar
    11     7    10    1
    12    10    11    1
    13    11    12    1
    14    12    13    1
    15    13    14    1
    16    10    14    1
    17    13    15    1
    18    15    16    1
    19    16    17    1
    20    17    18    2
    21    17    19    1
    22    17    20    1
    23    20    21    1
    24    21    22    2
    25    21    23    1
    26    21    24    1
    27    24    25    1
    28    25    26    2
    29    25    27    1
    30    25    28    1
    31    12    29    1
    32    11    30    1
    33     3    31    1
    34     1    32    1
    35     8    33    1
    36    10    34    1
    37    11    35    1
    38    12    36    1
    39    13    37    1
    40    15    38    1
    41    15    39    1
    42    19    40    1
    43    23    41    1
    44    27    42    1
    45    28    43    1
    46    29    44    1
    47    30    45    1
    48    31    46    1
    49    31    47    1
    50     2    48    1
    51     6    49    1
    52     9    50    1
    53    14    51    1
    54    14    52    1
    55    18    53    1
    56    18    54    1
    57    19    55    1
    58    19    56    1
    59    22    57    1
    60    22    58    1
    61    23    59    1
    62    23    60    1
    63    26    61    1
    64    26    62    1
    65    27    63    1
    66    27    64    1
    67    28    65    1
    68    28    66    1
    69    29    67    1
    70    29    68    1
    71    30    69    1
    72    30    70    1
@<TRIPOS>SUBSTRUCTURE
     1 RES1        1 GROUP             0 ****  ****    0  
@<TRIPOS>MOLECULE
ATP|ATP|mol2|1|dock24
    70    72     1     0     0
SMALL
NO_CHARGES
****
Generated from the CSD

@<TRIPOS>ATOM
     1 C       93.9973  94.8160  83.1272   C.ar      1 RES1   0.0000
     2 N       93.7837  93.5633  83.5919   N.ar      1 RES1   0.0000
     3 C       94.8038  92.7119  83.8295   C.ar      1 RES1   0.0000
     4 C       96.0907  93.1777  83.5750   C.ar      1 RES1   0.0000
     5 C       96.2791  94.4643  83.0955   C.ar      1 RES1   0.0000
     6 N       95.2380  95.2839  82.8720   N.ar      1 RES1   0.0000
     7 N       97.6045  94.6267  82.9443   N.ar      1 RES1   0.0000
     8 C       98.2375  93.4965  83.3208   C.ar      1 RES1   0.0000
     9 N       97.3011  92.6036  83.7040   N.ar      1 RES1   0.0000
    10 C       98.1992  95.7772  82.5217   C.3       1 RES1   0.0000
    11 C       99.2966  95.5054  81.4717   C.3       1 RES1   0.0000
    12 C       99.2886  96.7711  80.5856   C.3       1 RES1   0.0000
    13 C       98.1284  97.6107  81.1648   C.3       1 RES1   0.0000
    14 O       97.3041  96.6345  81.8077   O.3       1 RES1   0.0000
    15 C       97.3508  98.3964  80.0881   C.3       1 RES1   0.0000
    16 O       96.9736  97.5333  79.0099   O.3       1 RES1   0.0000
    17 P       95.9004  97.9124  77.8842   P.3       1 RES1   0.0000
    18 O       95.7456  99.3929  77.8215   O.2       1 RES1   0.0000
    19 O       96.4008  97.3725  76.4636   O.3       1 RES1   0.0000
    20 O       94.4860  97.2621  78.2583   O.3       1 RES1   0.0000
    21 P       93.3864  98.3907  78.5439   P.3       1 RES1   0.0000
    22 O       93.0916  99.1175  77.2770   O.2       1 RES1   0.0000
    23 O       93.9486  99.4351  79.6177   O.3       1 RES1   0.0000
    24 O       92.0442  97.7264  79.1102   O.3       1 RES1   0.0000
    25 P       92.2978  97.0245  80.5268   P.3       1 RES1   0.0000
    26 O       93.3931  96.0243  80.3859   O.2       1 RES1   0.0000
    27 O       92.7239  98.1212  81.6112   O.3       1 RES1   0.0000
    28 O       90.9673  96.2810  81.0142   O.3       1 RES1   0.0000
    29 O      100.5321  97.4758  80.6813   O.3       1 RES1   0.0000
    30 O      100.5778  95.2618  82.0650   O.3       1 RES1   0.0000
    31 N       94.5897  91.4621  84.2938   N.pl3     1 RES1   0.0000
    32 H1      93.1460  95.4642  82.9542   H         1 RES1   0.0000
    33 H2      99.3086  93.3288  83.3197   H         1 RES1   0.0000
    34 H3      98.6133  96.3300  83.3790   H         1 RES1   0.0000
    35 H4      98.9972  94.6378  80.8638   H         1 RES1   0.0000
    36 H5      99.0895  96.4805  79.5422   H         1 RES1   0.0000
    37 H6      98.5330  98.2946  81.9265   H         1 RES1   0.0000
    38 H7      97.9894  99.1916  79.6757   H         1 RES1   0.0000
    39 H8      96.4516  98.8476  80.5335   H         1 RES1   0.0000
    40 H9      95.6888  97.4224  75.8368   H         1 RES1   0.0000
    41 H10     94.0978 100.2734  79.1967   H         1 RES1   0.0000
    42 H11     92.1076  98.1081  82.3342   H         1 RES1   0.0000
    43 H12     90.9010  96.3375  81.9602   H         1 RES1   0.0000
    44 H13    100.9058  97.6082  79.8174   H         1 RES1   0.0000
    45 H14    100.7223  94.3300  82.1831   H         1 RES1   0.0000
    46 H15     93.6285  91.1392  84.4750   H         1 RES1   0.0000
    47 H16     95.3853  90.8307  84.4670   H         1 RES1   0.0000
    48 ****    92.8462  93.2605  83.7636   Du        1 RES1   0.0000
    49 ****    95.3778  96.2121  82.5271   Du        1 RES1   0.0000
    50 ****    97.4765  91.6741  84.0284   Du        1 RES1   0.0000
    51 ****    96.7891  96.1119  81.1283   Du        1 RES1   0.0000
    52 ****    96.6681  97.0775  82.4395   Du        1 RES1   0.0000
    53 ****    96.1213  99.9026  77.0475   Du        1 RES1   0.0000
    54 ****    95.2661  99.8770  78.5535   Du        1 RES1   0.0000
    55 ****    96.6989  96.4222  76.5544   Du        1 RES1   0.0000
    56 ****    97.1654  97.9326  76.1447   Du        1 RES1   0.0000
    57 ****    92.8268  98.6080  76.4583   Du        1 RES1   0.0000
    58 ****    93.1586 100.1147  77.2455   Du        1 RES1   0.0000
    59 ****    94.8095  99.0939  79.9953   Du        1 RES1   0.0000
    60 ****    93.2821  99.5463  80.3549   Du        1 RES1   0.0000
    61 ****    93.9178  95.9738  79.5361   Du        1 RES1   0.0000
    62 ****    93.6036  95.4036  81.1411   Du        1 RES1   0.0000
    63 ****    92.7216  99.0271  81.1877   Du        1 RES1   0.0000
    64 ****    93.6413  97.9146  81.9514   Du        1 RES1   0.0000
    65 ****    91.0028  95.3202  80.7394   Du        1 RES1   0.0000
    66 ****    90.1700  96.7177  80.5976   Du        1 RES1   0.0000
    67 ****   101.1701  96.9440  81.2381   Du        1 RES1   0.0000
    68 ****   100.3748  98.3646  81.1118   Du        1 RES1   0.0000
    69 ****   100.6188  95.7156  82.9552   Du        1 RES1   0.0000
    70 ****   101.2909  95.6314  81.4693   Du        1 RES1   0.0000
@<TRIPOS>BOND
     1     1     2   ar
     2     2     3   ar
     3     3     4   ar
     4     4     5   ar
     5     5     6   ar
     6     1     6   ar
     7     5     7   ar
     8     7     8   ar
     9     8     9   ar
    10     4     9   ar
    11     7    10    1
    12    10    11    1
    13    11    12    1
    14    12    13    1
    15    13    14    1
    16    10    14    1
    17    13    15    1
    18    15    16    1
    19    16    17    1
    20    17    18    2
    21    17    19    1
    22    17    20    1
    23    20    21    1
    24    21    22    2
    25    21    23    1
    26    21    24    1
    27    24    25    1
    28    25    26    2
    29    25    27    1
    30    25    28    1
    31    12    29    1
    32    11    30    1
    33     3    31    1
    34     1    32    1
    35     8    33    1
    36    10    34    1
    37    11    35    1
    38    12    36    1
    39    13    37    1
    40    15    38    1
    41    15    39    1
    42    19    40    1
    43    23    41    1
    44    27    42    1
    45    28    43    1
    46    29    44    1
    47    30    45    1
    48    31    46    1
    49    31    47    1
    50     2    48    1
    51     6    49    1
    52     9    50    1
    53    14    51    1
    54    14    52    1
    55    18    53    1
    56    18    54    1
    57    19    55    1
    58    19    56    1
    59    22    57    1
    60    22    58    1
    61    23    59    1
    62    23    60    1
    63    26    61    1
    64    26    62    1
    65    27    63    1
    66    27    64    1
    67    28    65    1
    68    28    66    1
    69    29    67    1
    70    29    68    1
    71    30    69    1
    72    30    70    1
@<TRIPOS>SUBSTRUCTURE
     1 RES1        1 GROUP             0 ****  ****    0  
@<TRIPOS>MOLECULE
ATP|ATP|mol2|1|dock5
    70    72     1     0     0
SMALL
NO_CHARGES
****
Generated from the CSD

@<TRIPOS>ATOM
     1 C       94.0044  94.9433  82.9411   C.ar      1 RES1   0.0000
     2 N       93.7507  93.6320  83.1581   N.ar      1 RES1   0.0000
     3 C       94.7455  92.7264  83.2686   C.ar      1 RES1   0.0000
     4 C       96.0494  93.1993  83.1490   C.ar      1 RES1   0.0000
     5 C       96.2790  94.5471  82.9229   C.ar      1 RES1   0.0000
     6 N       95.2622  95.4194  82.8196   N.ar      1 RES1   0.0000
     7 N       97.6120  94.7018  82.8498   N.ar      1 RES1   0.0000
     8 C       98.2097  93.5062  83.0319   C.ar      1 RES1   0.0000
     9 N       97.2434  92.5814  83.2107   N.ar      1 RES1   0.0000
    10 C       98.2431  95.8954  82.6682   C.3       1 RES1   0.0000
    11 C       99.7154  95.7094  82.2461   C.3       1 RES1   0.0000
    12 C      100.0138  96.9485  81.3727   C.3       1 RES1   0.0000
    13 C       98.6561  97.6829  81.3110   C.3       1 RES1   0.0000
    14 O       97.7078  96.6451  81.5739   O.3       1 RES1   0.0000
    15 C       98.3958  98.3649  79.9515   C.3       1 RES1   0.0000
    16 O       97.1946  97.8606  79.3577   O.3       1 RES1   0.0000
    17 P       95.7248  98.3911  79.7053   P.3       1 RES1   0.0000
    18 O       94.7242  97.6712  78.8684   O.2       1 RES1   0.0000
    19 O       95.4109  98.1243  81.2514   O.3       1 RES1   0.0000
    20 O       95.6351  99.9567  79.3828   O.3       1 RES1   0.0000
    21 P       96.0834 100.2650  77.8767   P.3       1 RES1   0.0000
    22 O       96.4455  98.9863  77.2030   O.2       1 RES1   0.0000
    23 O       97.3625 101.2262  77.8784   O.3       1 RES1   0.0000
    24 O       94.8923 100.9774  77.0784   O.3       1 RES1   0.0000
    25 P       94.5695 102.4227  77.6872   P.3       1 RES1   0.0000
    26 O       93.4844 103.0572  76.8872   O.2       1 RES1   0.0000
    27 O       94.0876 102.2802  79.2063   O.3       1 RES1   0.0000
    28 O       95.8753 103.3454  77.6260   O.3       1 RES1   0.0000
    29 O      101.0189  97.7735  81.9737   O.3       1 RES1   0.0000
    30 O      100.6006  95.6054  83.3679   O.3       1 RES1   0.0000
    31 N       94.4914  91.4181  83.4857   N.pl3     1 RES1   0.0000
    32 H1      93.1721  95.6331  82.8622   H         1 RES1   0.0000
    33 H2      99.2768  93.3151  83.0363   H         1 RES1   0.0000
    34 H3      98.1774  96.5048  83.5828   H         1 RES1   0.0000
    35 H4      99.7934  94.8035  81.6255   H         1 RES1   0.0000
    36 H5     100.3346  96.6169  80.3727   H         1 RES1   0.0000
    37 H6      98.6155  98.4197  82.1278   H         1 RES1   0.0000
    38 H7      99.2273  98.1508  79.2639   H         1 RES1   0.0000
    39 H8      98.3115  99.4531  80.0912   H         1 RES1   0.0000
    40 H9      95.9491  98.6949  81.7872   H         1 RES1   0.0000
    41 H10     97.2732 101.8717  78.5695   H         1 RES1   0.0000
    42 H11     94.7882 102.5517  79.7878   H         1 RES1   0.0000
    43 H12     96.3797 103.2343  78.4233   H         1 RES1   0.0000
    44 H13    101.5926  98.1357  81.3081   H         1 RES1   0.0000
    45 H14    100.1571  95.2138  84.1115   H         1 RES1   0.0000
    46 H15     93.5183  91.0912  83.5709   H         1 RES1   0.0000
    47 H16     95.2683  90.7461  83.5661   H         1 RES1   0.0000
    48 ****    92.8021  93.3261  83.2386   Du        1 RES1   0.0000
    49 ****    95.4317  96.3915  82.6577   Du        1 RES1   0.0000
    50 ****    97.3896  91.6039  83.3631   Du        1 RES1   0.0000
    51 ****    97.6006  96.0597  80.7703   Du        1 RES1   0.0000
    52 ****    96.8218  97.0375  81.8211   Du        1 RES1   0.0000
    53 ****    94.8167  96.6876  78.7137   Du        1 RES1   0.0000
    54 ****    93.9601  98.1718  78.4613   Du        1 RES1   0.0000
    55 ****    95.6135  97.1704  81.4728   Du        1 RES1   0.0000
    56 ****    94.4451  98.3106  81.4323   Du        1 RES1   0.0000
    57 ****    96.5756  98.1555  77.7442   Du        1 RES1   0.0000
    58 ****    96.5584  98.9589  76.2098   Du        1 RES1   0.0000
    59 ****    97.4314 101.6907  76.9955   Du        1 RES1   0.0000
    60 ****    98.1874 100.6829  78.0344   Du        1 RES1   0.0000
    61 ****    93.4823 104.0469  76.7439   Du        1 RES1   0.0000
    62 ****    92.7583 102.4934  76.4936   Du        1 RES1   0.0000
    63 ****    93.8505 101.3267  79.3927   Du        1 RES1   0.0000
    64 ****    93.2860 102.8587  79.3574   Du        1 RES1   0.0000
    65 ****    95.6026 104.3032  77.5351   Du        1 RES1   0.0000
    66 ****    96.4332 103.0816  76.8392   Du        1 RES1   0.0000
    67 ****   101.5593  97.2232  82.6103   Du        1 RES1   0.0000
    68 ****   100.5778  98.5208  82.4706   Du        1 RES1   0.0000
    69 ****   100.9195  96.5191  83.6199   Du        1 RES1   0.0000
    70 ****   101.3838  95.0368  83.1162   Du        1 RES1   0.0000
@<TRIPOS>BOND
     1     1     2   ar
     2     2     3   ar
     3     3     4   ar
     4     4     5   ar
     5     5     6   ar
     6     1     6   ar
     7     5     7   ar
     8     7     8   ar
     9     8     9   ar
    10     4     9   ar
    11     7    10    1
    12    10    11    1
    13    11    12    1
    14    12    13    1
    15    13    14    1
    16    10    14    1
    17    13    15    1
    18    15    16    1
    19    16    17    1
    20    17    18    2
    21    17    19    1
    22    17    20    1
    23    20    21    1
    24    21    22    2
    25    21    23    1
    26    21    24    1
    27    24    25    1
    28    25    26    2
    29    25    27    1
    30    25    28    1
    31    12    29    1
    32    11    30    1
    33     3    31    1
    34     1    32    1
    35     8    33    1
    36    10    34    1
    37    11    35    1
    38    12    36    1
    39    13    37    1
    40    15    38    1
    41    15    39    1
    42    19    40    1
    43    23    41    1
    44    27    42    1
    45    28    43    1
    46    29    44    1
    47    30    45    1
    48    31    46    1
    49    31    47    1
    50     2    48    1
    51     6    49    1
    52     9    50    1
    53    14    51    1
    54    14    52    1
    55    18    53    1
    56    18    54    1
    57    19    55    1
    58    19    56    1
    59    22    57    1
    60    22    58    1
    61    23    59    1
    62    23    60    1
    63    26    61    1
    64    26    62    1
    65    27    63    1
    66    27    64    1
    67    28    65    1
    68    28    66    1
    69    29    67    1
    70    29    68    1
    71    30    69    1
    72    30    70    1
@<TRIPOS>SUBSTRUCTURE
     1 RES1        1 GROUP             0 ****  ****    0  
@<TRIPOS>MOLECULE
ATP|ATP|mol2|1|dock25
    70    72     1     0     0
SMALL
NO_CHARGES
****
Generated from the CSD

@<TRIPOS>ATOM
     1 C       94.3490  93.9634  83.6715   C.ar      1 RES1   0.0000
     2 N       94.5803  92.7380  84.1965   N.ar      1 RES1   0.0000
     3 C       95.8238  92.2163  84.2580   C.ar      1 RES1   0.0000
     4 C       96.8632  92.9945  83.7560   C.ar      1 RES1   0.0000
     5 C       96.5960  94.2444  83.2204   C.ar      1 RES1   0.0000
     6 N       95.3442  94.7308  83.1774   N.ar      1 RES1   0.0000
     7 N       97.7750  94.7496  82.8195   N.ar      1 RES1   0.0000
     8 C       98.7556  93.8655  83.0964   C.ar      1 RES1   0.0000
     9 N       98.1893  92.7825  83.6688   N.ar      1 RES1   0.0000
    10 C       97.9395  95.9837  82.2666   C.3       1 RES1   0.0000
    11 C       98.8177  95.9338  80.9990   C.3       1 RES1   0.0000
    12 C       98.2854  97.0944  80.1289   C.3       1 RES1   0.0000
    13 C       97.0970  97.6450  80.9482   C.3       1 RES1   0.0000
    14 O       96.7180  96.5346  81.7660   O.3       1 RES1   0.0000
    15 C       95.9272  98.1332  80.0682   C.3       1 RES1   0.0000
    16 O       96.4128  98.9310  78.9831   O.3       1 RES1   0.0000
    17 P       96.0548  98.6745  77.4441   P.3       1 RES1   0.0000
    18 O       96.2636  99.9292  76.6680   O.2       1 RES1   0.0000
    19 O       97.0023  97.5263  76.8578   O.3       1 RES1   0.0000
    20 O       94.5180  98.2427  77.3212   O.3       1 RES1   0.0000
    21 P       94.1152  97.9603  75.7972   P.3       1 RES1   0.0000
    22 O       95.1289  97.0573  75.1831   O.2       1 RES1   0.0000
    23 O       94.0888  99.3357  74.9803   O.3       1 RES1   0.0000
    24 O       92.6688  97.2777  75.7233   O.3       1 RES1   0.0000
    25 P       92.5931  95.9775  76.6548   P.3       1 RES1   0.0000
    26 O       91.2419  95.3633  76.5253   O.2       1 RES1   0.0000
    27 O       93.6993  94.9147  76.2000   O.3       1 RES1   0.0000
    28 O       92.8406  96.3846  78.1824   O.3       1 RES1   0.0000
    29 O       99.2890  98.0988  79.9384   O.3       1 RES1   0.0000
    30 O      100.2141  96.0658  81.2913   O.3       1 RES1   0.0000
    31 N       96.0537  90.9935  84.7828   N.pl3     1 RES1   0.0000
    32 H1      93.3333  94.3408  83.6466   H         1 RES1   0.0000
    33 H2      99.8134  93.9959  82.8982   H         1 RES1   0.0000
    34 H3      98.3668  96.6791  83.0055   H         1 RES1   0.0000
    35 H4      98.6348  94.9806  80.4796   H         1 RES1   0.0000
    36 H5      97.9510  96.6948  79.1587   H         1 RES1   0.0000
    37 H6      97.4603  98.4581  81.5951   H         1 RES1   0.0000
    38 H7      95.2476  98.7571  80.6674   H         1 RES1   0.0000
    39 H8      95.3727  97.2687  79.6733   H         1 RES1   0.0000
    40 H9      97.7102  97.9215  76.3629   H         1 RES1   0.0000
    41 H10     93.2978  99.3779  74.4560   H         1 RES1   0.0000
    42 H11     94.5655  95.2705  76.3603   H         1 RES1   0.0000
    43 H12     93.1781  97.2717  78.2234   H         1 RES1   0.0000
    44 H13     99.8018  97.9120  79.1603   H         1 RES1   0.0000
    45 H14    100.7399  95.8261  80.5369   H         1 RES1   0.0000
    46 H15     95.2687  90.4357  85.1483   H         1 RES1   0.0000
    47 H16     97.0122  90.6171  84.8180   H         1 RES1   0.0000
    48 ****    93.8105  92.2052  84.5480   Du        1 RES1   0.0000
    49 ****    95.1553  95.6337  82.7913   Du        1 RES1   0.0000
    50 ****    98.6726  91.9626  83.9757   Du        1 RES1   0.0000
    51 ****    96.2260  95.8542  81.2230   Du        1 RES1   0.0000
    52 ****    96.1386  96.8404  82.5216   Du        1 RES1   0.0000
    53 ****    95.4865 100.5226  76.4583   Du        1 RES1   0.0000
    54 ****    97.1808 100.1778  76.3569   Du        1 RES1   0.0000
    55 ****    96.4698  96.9285  76.2585   Du        1 RES1   0.0000
    56 ****    97.3817  96.9900  77.6118   Du        1 RES1   0.0000
    57 ****    96.0905  97.1321  75.4473   Du        1 RES1   0.0000
    58 ****    94.8477  96.3765  74.5068   Du        1 RES1   0.0000
    59 ****    94.8883  99.3831  74.3816   Du        1 RES1   0.0000
    60 ****    94.1056 100.1038  75.6204   Du        1 RES1   0.0000
    61 ****    90.9876  94.8874  75.6833   Du        1 RES1   0.0000
    62 ****    90.5892  95.4268  77.2803   Du        1 RES1   0.0000
    63 ****    93.5939  94.7207  75.2247   Du        1 RES1   0.0000
    64 ****    93.5842  94.0697  76.7222   Du        1 RES1   0.0000
    65 ****    93.5030  95.7569  78.5914   Du        1 RES1   0.0000
    66 ****    91.9778  96.3328  78.6851   Du        1 RES1   0.0000
    67 ****    99.8934  98.1157  80.7350   Du        1 RES1   0.0000
    68 ****    98.8476  98.9902  79.8359   Du        1 RES1   0.0000
    69 ****   100.4470  95.4666  82.0572   Du        1 RES1   0.0000
    70 ****   100.4092  97.0147  81.5391   Du        1 RES1   0.0000
@<TRIPOS>BOND
     1     1     2   ar
     2     2     3   ar
     3     3     4   ar
     4     4     5   ar
     5     5     6   ar
     6     1     6   ar
     7     5     7   ar
     8     7     8   ar
     9     8     9   ar
    10     4     9   ar
    11     7    10    1
    12    10    11    1
    13    11    12    1
    14    12    13    1
    15    13    14    1
    16    10    14    1
    17    13    15    1
    18    15    16    1
    19    16    17    1
    20    17    18    2
    21    17    19    1
    22    17    20    1
    23    20    21    1
    24    21    22    2
    25    21    23    1
    26    21    24    1
    27    24    25    1
    28    25    26    2
    29    25    27    1
    30    25    28    1
    31    12    29    1
    32    11    30    1
    33     3    31    1
    34     1    32    1
    35     8    33    1
    36    10    34    1
    37    11    35    1
    38    12    36    1
    39    13    37    1
    40    15    38    1
    41    15    39    1
    42    19    40    1
    43    23    41    1
    44    27    42    1
    45    28    43    1
    46    29    44    1
    47    30    45    1
    48    31    46    1
    49    31    47    1
    50     2    48    1
    51     6    49    1
    52     9    50    1
    53    14    51    1
    54    14    52    1
    55    18    53    1
    56    18    54    1
    57    19    55    1
    58    19    56    1
    59    22    57    1
    60    22    58    1
    61    23    59    1
    62    23    60    1
    63    26    61    1
    64    26    62    1
    65    27    63    1
    66    27    64    1
    67    28    65    1
    68    28    66    1
    69    29    67    1
    70    29    68    1
    71    30    69    1
    72    30    70    1
@<TRIPOS>SUBSTRUCTURE
     1 RES1        1 GROUP             0 ****  ****    0  
@<TRIPOS>MOLECULE
ATP|ATP|mol2|1|dock4
    70    72     1     0     0
SMALL
NO_CHARGES
****
Generated from the CSD

@<TRIPOS>ATOM
     1 C      100.3425 101.1336  77.4307   C.ar      1 RES1   0.0000
     2 N      101.6590 101.4462  77.4256   N.ar      1 RES1   0.0000
     3 C      102.5472 100.7863  78.1986   C.ar      1 RES1   0.0000
     4 C      102.0506  99.7664  79.0055   C.ar      1 RES1   0.0000
     5 C      100.6968  99.4708  78.9930   C.ar      1 RES1   0.0000
     6 N       99.8426 100.1496  78.2087   N.ar      1 RES1   0.0000
     7 N      100.5170  98.4607  79.8611   N.ar      1 RES1   0.0000
     8 C      101.7061  98.1178  80.3978   C.ar      1 RES1   0.0000
     9 N      102.6485  98.9282  79.8722   N.ar      1 RES1   0.0000
    10 C       99.3205  97.8587  80.1097   C.3       1 RES1   0.0000
    11 C       99.3858  96.9377  81.3458   C.3       1 RES1   0.0000
    12 C       97.9549  96.9885  81.9265   C.3       1 RES1   0.0000
    13 C       97.2294  98.0009  81.0126   C.3       1 RES1   0.0000
    14 O       98.2980  98.7881  80.4795   O.3       1 RES1   0.0000
    15 C       96.1996  98.8692  81.7655   C.3       1 RES1   0.0000
    16 O       95.2453  99.4225  80.8528   O.3       1 RES1   0.0000
    17 P       93.6928  99.0332  80.8252   P.3       1 RES1   0.0000
    18 O       92.9122 100.0424  81.5948   O.2       1 RES1   0.0000
    19 O       93.1743  99.0057  79.3118   O.3       1 RES1   0.0000
    20 O       93.4927  97.5984  81.5068   O.3       1 RES1   0.0000
    21 P       92.5476  96.6606  80.6171   P.3       1 RES1   0.0000
    22 O       91.2489  97.3537  80.3866   O.2       1 RES1   0.0000
    23 O       92.2682  95.2865  81.3876   O.3       1 RES1   0.0000
    24 O       93.2465  96.3422  79.2122   O.3       1 RES1   0.0000
    25 P       92.3782  95.3056  78.3546   P.3       1 RES1   0.0000
    26 O       92.2415  94.0344  79.1197   O.2       1 RES1   0.0000
    27 O       90.9233  95.9106  78.0766   O.3       1 RES1   0.0000
    28 O       93.1059  95.0045  76.9617   O.3       1 RES1   0.0000
    29 O       97.3285  95.7014  81.8685   O.3       1 RES1   0.0000
    30 O       99.7955  95.6045  81.0180   O.3       1 RES1   0.0000
    31 N      103.8610 101.0987  78.1924   N.pl3     1 RES1   0.0000
    32 H1      99.6681 101.6903  76.7903   H         1 RES1   0.0000
    33 H2     101.8813  97.3308  81.1226   H         1 RES1   0.0000
    34 H3      98.9858  97.2950  79.2252   H         1 RES1   0.0000
    35 H4     100.0863  97.3735  82.0747   H         1 RES1   0.0000
    36 H5      97.9993  97.3490  82.9662   H         1 RES1   0.0000
    37 H6      96.7455  97.4515  80.1908   H         1 RES1   0.0000
    38 H7      96.7129  99.7048  82.2640   H         1 RES1   0.0000
    39 H8      95.6803  98.2600  82.5204   H         1 RES1   0.0000
    40 H9      92.7983  98.1545  79.1210   H         1 RES1   0.0000
    41 H10     92.9861  94.6842  81.2322   H         1 RES1   0.0000
    42 H11     90.2838  95.2080  78.0700   H         1 RES1   0.0000
    43 H12     92.8583  95.6650  76.3254   H         1 RES1   0.0000
    44 H13     97.0554  95.5051  80.9795   H         1 RES1   0.0000
    45 H14    100.1263  95.5633  80.1280   H         1 RES1   0.0000
    46 H15    104.2056 101.8574  77.5870   H         1 RES1   0.0000
    47 H16    104.5192 100.5802  78.7920   H         1 RES1   0.0000
    48 ****   101.9821 102.1850  76.8342   Du        1 RES1   0.0000
    49 ****    98.8664  99.9327  78.2013   Du        1 RES1   0.0000
    50 ****   103.6245  98.9092  80.0895   Du        1 RES1   0.0000
    51 ****    98.6398  99.4249  81.1707   Du        1 RES1   0.0000
    52 ****    97.9872  99.3004  79.6789   Du        1 RES1   0.0000
    53 ****    93.2865 100.9579  81.7421   Du        1 RES1   0.0000
    54 ****    92.0138  99.8042  81.9640   Du        1 RES1   0.0000
    55 ****    93.9413  99.1773  78.6936   Du        1 RES1   0.0000
    56 ****    92.4791  99.7132  79.1848   Du        1 RES1   0.0000
    57 ****    90.8220  97.8746  81.1258   Du        1 RES1   0.0000
    58 ****    90.8041  97.2978  79.4927   Du        1 RES1   0.0000
    59 ****    91.4167  94.8836  81.0522   Du        1 RES1   0.0000
    60 ****    92.1891  95.4646  82.3685   Du        1 RES1   0.0000
    61 ****    92.2025  93.1607  78.6348   Du        1 RES1   0.0000
    62 ****    92.1887  94.0550  80.1181   Du        1 RES1   0.0000
    63 ****    90.9187  96.3739  77.1904   Du        1 RES1   0.0000
    64 ****    90.6915  96.5653  78.7961   Du        1 RES1   0.0000
    65 ****    92.8303  94.1023  76.6299   Du        1 RES1   0.0000
    66 ****    94.0971  95.0230  77.0927   Du        1 RES1   0.0000
    67 ****    96.5278  95.6975  82.4675   Du        1 RES1   0.0000
    68 ****    97.9776  95.0052  82.1751   Du        1 RES1   0.0000
    69 ****    99.0119  94.9895  81.1055   Du        1 RES1   0.0000
    70 ****   100.5162  95.3181  81.6494   Du        1 RES1   0.0000
@<TRIPOS>BOND
     1     1     2   ar
     2     2     3   ar
     3     3     4   ar
     4     4     5   ar
     5     5     6   ar
     6     1     6   ar
     7     5     7   ar
     8     7     8   ar
     9     8     9   ar
    10     4     9   ar
    11     7    10    1
    12    10    11    1
    13    11    12    1
    14    12    13    1
    15    13    14    1
    16    10    14    1
    17    13    15    1
    18    15    16    1
    19    16    17    1
    20    17    18    2
    21    17    19    1
    22    17    20    1
    23    20    21    1
    24    21    22    2
    25    21    23    1
    26    21    24    1
    27    24    25    1
    28    25    26    2
    29    25    27    1
    30    25    28    1
    31    12    29    1
    32    11    30    1
    33     3    31    1
    34     1    32    1
    35     8    33    1
    36    10    34    1
    37    11    35    1
    38    12    36    1
    39    13    37    1
    40    15    38    1
    41    15    39    1
    42    19    40    1
    43    23    41    1
    44    27    42    1
    45    28    43    1
    46    29    44    1
    47    30    45    1
    48    31    46    1
    49    31    47    1
    50     2    48    1
    51     6    49    1
    52     9    50    1
    53    14    51    1
    54    14    52    1
    55    18    53    1
    56    18    54    1
    57    19    55    1
    58    19    56    1
    59    22    57    1
    60    22    58    1
    61    23    59    1
    62    23    60    1
    63    26    61    1
    64    26    62    1
    65    27    63    1
    66    27    64    1
    67    28    65    1
    68    28    66    1
    69    29    67    1
    70    29    68    1
    71    30    69    1
    72    30    70    1
@<TRIPOS>SUBSTRUCTURE
     1 RES1        1 GROUP             0 ****  ****    0  
@<TRIPOS>MOLECULE
ATP|ATP|mol2|1|dock21
    70    72     1     0     0
SMALL
NO_CHARGES
****
Generated from the CSD

@<TRIPOS>ATOM
     1 C      101.7914 100.0551  77.4899   C.ar      1 RES1   0.0000
     2 N      102.8557 100.8871  77.5662   N.ar      1 RES1   0.0000
     3 C      103.4366 101.1883  78.7468   C.ar      1 RES1   0.0000
     4 C      102.8927 100.6054  79.8880   C.ar      1 RES1   0.0000
     5 C      101.7998  99.7603  79.7799   C.ar      1 RES1   0.0000
     6 N      101.2488  99.4830  78.5862   N.ar      1 RES1   0.0000
     7 N      101.4999  99.3602  81.0274   N.ar      1 RES1   0.0000
     8 C      102.3701  99.9169  81.8949   C.ar      1 RES1   0.0000
     9 N      103.2240 100.6881  81.1898   N.ar      1 RES1   0.0000
    10 C      100.5000  98.4896  81.3407   C.3       1 RES1   0.0000
    11 C      100.5240  98.0991  82.8331   C.3       1 RES1   0.0000
    12 C       99.0414  97.8267  83.1727   C.3       1 RES1   0.0000
    13 C       98.3012  98.1689  81.8606   C.3       1 RES1   0.0000
    14 O       99.1984  99.0660  81.2004   O.3       1 RES1   0.0000
    15 C       96.9179  98.8118  82.0937   C.3       1 RES1   0.0000
    16 O       96.3252  99.1954  80.8481   O.3       1 RES1   0.0000
    17 P       94.7563  99.1285  80.5372   P.3       1 RES1   0.0000
    18 O       94.4808  97.9994  79.6048   O.2       1 RES1   0.0000
    19 O       93.9496  98.8981  81.8995   O.3       1 RES1   0.0000
    20 O       94.2938 100.4947  79.8423   O.3       1 RES1   0.0000
    21 P       92.6987 100.5748  79.7256   P.3       1 RES1   0.0000
    22 O       92.1356 101.0292  81.0281   O.2       1 RES1   0.0000
    23 O       92.1073  99.1275  79.3859   O.3       1 RES1   0.0000
    24 O       92.2781 101.5987  78.5688   O.3       1 RES1   0.0000
    25 P       93.5479 102.4025  78.0162   P.3       1 RES1   0.0000
    26 O       93.1042 103.3370  76.9440   O.2       1 RES1   0.0000
    27 O       94.2201 103.2426  79.2004   O.3       1 RES1   0.0000
    28 O       94.6205 101.3806  77.4114   O.3       1 RES1   0.0000
    29 O       98.8387  96.4559  83.5359   O.3       1 RES1   0.0000
    30 O      101.3611  96.9655  83.0921   O.3       1 RES1   0.0000
    31 N      104.4992 102.0183  78.8219   N.pl3     1 RES1   0.0000
    32 H1     101.3607  99.8411  76.5185   H         1 RES1   0.0000
    33 H2     102.3871  99.7735  82.9694   H         1 RES1   0.0000
    34 H3     100.5621  97.5925  80.7055   H         1 RES1   0.0000
    35 H4     100.8752  98.9625  83.4189   H         1 RES1   0.0000
    36 H5      98.7302  98.4928  83.9926   H         1 RES1   0.0000
    37 H6      98.2055  97.2519  81.2593   H         1 RES1   0.0000
    38 H7      97.0287  99.7180  82.7074   H         1 RES1   0.0000
    39 H8      96.2595  98.0997  82.6135   H         1 RES1   0.0000
    40 H9      94.0131  97.9854  82.1551   H         1 RES1   0.0000
    41 H10     91.1581  99.1651  79.3846   H         1 RES1   0.0000
    42 H11     95.1387 103.0109  79.2716   H         1 RES1   0.0000
    43 H12     94.7499 100.6611  78.0180   H         1 RES1   0.0000
    44 H13     99.5659  96.1407  84.0607   H         1 RES1   0.0000
    45 H14    102.2660  97.1591  82.8761   H         1 RES1   0.0000
    46 H15    104.8848 102.4379  77.9639   H         1 RES1   0.0000
    47 H16    104.9249 102.2330  79.7353   H         1 RES1   0.0000
    48 ****   103.2212 101.2890  76.7267   Du        1 RES1   0.0000
    49 ****   100.4610  98.8717  78.5119   Du        1 RES1   0.0000
    50 ****   103.9746 101.2287  81.5697   Du        1 RES1   0.0000
    51 ****    99.1687  99.9679  81.6314   Du        1 RES1   0.0000
    52 ****    98.9574  99.1505  80.2336   Du        1 RES1   0.0000
    53 ****    93.7347  97.3622  79.7979   Du        1 RES1   0.0000
    54 ****    95.0419  97.8788  78.7859   Du        1 RES1   0.0000
    55 ****    92.9889  99.1398  81.7628   Du        1 RES1   0.0000
    56 ****    94.3389  99.4735  82.6188   Du        1 RES1   0.0000
    57 ****    91.2694 100.6529  81.3569   Du        1 RES1   0.0000
    58 ****    92.6239 101.7106  81.5734   Du        1 RES1   0.0000
    59 ****    92.4138  98.4719  80.0760   Du        1 RES1   0.0000
    60 ****    92.4306  98.8385  78.4848   Du        1 RES1   0.0000
    61 ****    93.2941 104.3156  77.0235   Du        1 RES1   0.0000
    62 ****    92.6165 102.9857  76.1448   Du        1 RES1   0.0000
    63 ****    93.7563 103.0347  80.0616   Du        1 RES1   0.0000
    64 ****    94.1371 104.2198  79.0047   Du        1 RES1   0.0000
    65 ****    95.4887 101.8554  77.2675   Du        1 RES1   0.0000
    66 ****    94.2865 101.0247  76.5387   Du        1 RES1   0.0000
    67 ****    98.7670  95.9024  82.7062   Du        1 RES1   0.0000
    68 ****    97.9930  96.3766  84.0636   Du        1 RES1   0.0000
    69 ****   101.0492  96.1939  82.5377   Du        1 RES1   0.0000
    70 ****   101.2990  96.7264  84.0611   Du        1 RES1   0.0000
@<TRIPOS>BOND
     1     1     2   ar
     2     2     3   ar
     3     3     4   ar
     4     4     5   ar
     5     5     6   ar
     6     1     6   ar
     7     5     7   ar
     8     7     8   ar
     9     8     9   ar
    10     4     9   ar
    11     7    10    1
    12    10    11    1
    13    11    12    1
    14    12    13    1
    15    13    14    1
    16    10    14    1
    17    13    15    1
    18    15    16    1
    19    16    17    1
    20    17    18    2
    21    17    19    1
    22    17    20    1
    23    20    21    1
    24    21    22    2
    25    21    23    1
    26    21    24    1
    27    24    25    1
    28    25    26    2
    29    25    27    1
    30    25    28    1
    31    12    29    1
    32    11    30    1
    33     3    31    1
    34     1    32    1
    35     8    33    1
    36    10    34    1
    37    11    35    1
    38    12    36    1
    39    13    37    1
    40    15    38    1
    41    15    39    1
    42    19    40    1
    43    23    41    1
    44    27    42    1
    45    28    43    1
    46    29    44    1
    47    30    45    1
    48    31    46    1
    49    31    47    1
    50     2    48    1
    51     6    49    1
    52     9    50    1
    53    14    51    1
    54    14    52    1
    55    18    53    1
    56    18    54    1
    57    19    55    1
    58    19    56    1
    59    22    57    1
    60    22    58    1
    61    23    59    1
    62    23    60    1
    63    26    61    1
    64    26    62    1
    65    27    63    1
    66    27    64    1
    67    28    65    1
    68    28    66    1
    69    29    67    1
    70    29    68    1
    71    30    69    1
    72    30    70    1
@<TRIPOS>SUBSTRUCTURE
     1 RES1        1 GROUP             0 ****  ****    0  
@<TRIPOS>MOLECULE
ATP|ATP|mol2|1|dock15
    70    72     1     0     0
SMALL
NO_CHARGES
****
Generated from the CSD

@<TRIPOS>ATOM
     1 C      101.7958 100.1869  78.3120   C.ar      1 RES1   0.0000
     2 N      102.9262 100.6051  78.9270   N.ar      1 RES1   0.0000
     3 C      103.1602 100.3481  80.2313   C.ar      1 RES1   0.0000
     4 C      102.1858  99.6322  80.9211   C.ar      1 RES1   0.0000
     5 C      101.0360  99.2201  80.2663   C.ar      1 RES1   0.0000
     6 N      100.8387  99.4941  78.9657   N.ar      1 RES1   0.0000
     7 N      100.2917  98.5658  81.1740   N.ar      1 RES1   0.0000
     8 C      100.9420  98.5507  82.3558   C.ar      1 RES1   0.0000
     9 N      102.1068  99.2135  82.1977   N.ar      1 RES1   0.0000
    10 C       99.0928  97.9751  80.9098   C.3       1 RES1   0.0000
    11 C       98.5068  97.2802  82.1565   C.3       1 RES1   0.0000
    12 C       96.9779  97.3811  81.9573   C.3       1 RES1   0.0000
    13 C       96.8361  98.1988  80.6543   C.3       1 RES1   0.0000
    14 O       98.0696  98.9192  80.5815   O.3       1 RES1   0.0000
    15 C       95.6191  99.1475  80.6621   C.3       1 RES1   0.0000
    16 O       94.3990  98.3999  80.7111   O.3       1 RES1   0.0000
    17 P       93.7398  97.6657  79.4506   P.3       1 RES1   0.0000
    18 O       94.5854  97.8902  78.2446   O.2       1 RES1   0.0000
    19 O       93.6365  96.0953  79.7391   O.3       1 RES1   0.0000
    20 O       92.2850  98.2774  79.1806   O.3       1 RES1   0.0000
    21 P       91.3261  98.0732  80.4468   P.3       1 RES1   0.0000
    22 O       90.0314  98.7666  80.1961   O.2       1 RES1   0.0000
    23 O       92.0061  98.7074  81.7488   O.3       1 RES1   0.0000
    24 O       91.0637  96.5138  80.6980   O.3       1 RES1   0.0000
    25 P       89.4974  96.1996  80.8057   P.3       1 RES1   0.0000
    26 O       88.8271  96.6253  79.5450   O.2       1 RES1   0.0000
    27 O       89.2686  94.6302  81.0183   O.3       1 RES1   0.0000
    28 O       88.8622  97.0027  82.0353   O.3       1 RES1   0.0000
    29 O       96.3891  96.0827  81.8172   O.3       1 RES1   0.0000
    30 O       98.9521  95.9251  82.2917   O.3       1 RES1   0.0000
    31 N      104.2890 100.7654  80.8439   N.pl3     1 RES1   0.0000
    32 H1     101.6540 100.4152  77.2620   H         1 RES1   0.0000
    33 H2     100.5967  98.0887  83.2736   H         1 RES1   0.0000
    34 H3      99.1950  97.2585  80.0803   H         1 RES1   0.0000
    35 H4      98.7928  97.8566  83.0497   H         1 RES1   0.0000
    36 H5      96.5363  97.9142  82.8138   H         1 RES1   0.0000
    37 H6      96.7783  97.5019  79.8043   H         1 RES1   0.0000
    38 H7      95.6102  99.7470  79.7397   H         1 RES1   0.0000
    39 H8      95.6769  99.8197  81.5312   H         1 RES1   0.0000
    40 H9      94.4374  95.6682  79.4589   H         1 RES1   0.0000
    41 H10     91.5858  98.3605  82.5269   H         1 RES1   0.0000
    42 H11     89.0881  94.2200  80.1806   H         1 RES1   0.0000
    43 H12     89.4868  97.0334  82.7504   H         1 RES1   0.0000
    44 H13     96.3313  95.8418  80.8996   H         1 RES1   0.0000
    45 H14     99.4015  95.6385  81.5050   H         1 RES1   0.0000
    46 H15    104.9962 101.2936  80.3132   H         1 RES1   0.0000
    47 H16    104.4442 100.5568  81.8409   H         1 RES1   0.0000
    48 ****   103.6056 101.1177  78.4018   Du        1 RES1   0.0000
    49 ****   100.0084  99.1941  78.4961   Du        1 RES1   0.0000
    50 ****   102.7939  99.3673  82.9078   Du        1 RES1   0.0000
    51 ****    98.0704  99.6752  81.2361   Du        1 RES1   0.0000
    52 ****    98.2096  99.2774  79.6584   Du        1 RES1   0.0000
    53 ****    95.4470  97.3938  78.1386   Du        1 RES1   0.0000
    54 ****    94.2914  98.5373  77.5411   Du        1 RES1   0.0000
    55 ****    92.8616  95.7141  79.2349   Du        1 RES1   0.0000
    56 ****    93.5035  95.9445  80.7187   Du        1 RES1   0.0000
    57 ****    90.0210  99.7418  79.9748   Du        1 RES1   0.0000
    58 ****    89.1727  98.2568  80.2492   Du        1 RES1   0.0000
    59 ****    91.9015  99.7017  81.7287   Du        1 RES1   0.0000
    60 ****    92.9786  98.4748  81.7637   Du        1 RES1   0.0000
    61 ****    88.7982  96.0061  78.7603   Du        1 RES1   0.0000
    62 ****    88.4062  97.5303  79.4835   Du        1 RES1   0.0000
    63 ****    88.4935  94.4868  81.6336   Du        1 RES1   0.0000
    64 ****    90.0908  94.2247  81.4177   Du        1 RES1   0.0000
    65 ****    88.0291  96.5411  82.3400   Du        1 RES1   0.0000
    66 ****    88.6406  97.9340  81.7461   Du        1 RES1   0.0000
    67 ****    95.4710  96.0929  82.2135   Du        1 RES1   0.0000
    68 ****    96.9527  95.4117  82.2991   Du        1 RES1   0.0000
    69 ****    98.1613  95.3343  82.4515   Du        1 RES1   0.0000
    70 ****    99.5781  95.8615  83.0689   Du        1 RES1   0.0000
@<TRIPOS>BOND
     1     1     2   ar
     2     2     3   ar
     3     3     4   ar
     4     4     5   ar
     5     5     6   ar
     6     1     6   ar
     7     5     7   ar
     8     7     8   ar
     9     8     9   ar
    10     4     9   ar
    11     7    10    1
    12    10    11    1
    13    11    12    1
    14    12    13    1
    15    13    14    1
    16    10    14    1
    17    13    15    1
    18    15    16    1
    19    16    17    1
    20    17    18    2
    21    17    19    1
    22    17    20    1
    23    20    21    1
    24    21    22    2
    25    21    23    1
    26    21    24    1
    27    24    25    1
    28    25    26    2
    29    25    27    1
    30    25    28    1
    31    12    29    1
    32    11    30    1
    33     3    31    1
    34     1    32    1
    35     8    33    1
    36    10    34    1
    37    11    35    1
    38    12    36    1
    39    13    37    1
    40    15    38    1
    41    15    39    1
    42    19    40    1
    43    23    41    1
    44    27    42    1
    45    28    43    1
    46    29    44    1
    47    30    45    1
    48    31    46    1
    49    31    47    1
    50     2    48    1
    51     6    49    1
    52     9    50    1
    53    14    51    1
    54    14    52    1
    55    18    53    1
    56    18    54    1
    57    19    55    1
    58    19    56    1
    59    22    57    1
    60    22    58    1
    61    23    59    1
    62    23    60    1
    63    26    61    1
    64    26    62    1
    65    27    63    1
    66    27    64    1
    67    28    65    1
    68    28    66    1
    69    29    67    1
    70    29    68    1
    71    30    69    1
    72    30    70    1
@<TRIPOS>SUBSTRUCTURE
     1 RES1        1 GROUP             0 ****  ****    0  
@<TRIPOS>MOLECULE
ATP|ATP|mol2|1|dock23
    70    72     1     0     0
SMALL
NO_CHARGES
****
Generated from the CSD

@<TRIPOS>ATOM
     1 C      103.4713 101.9418  79.2935   C.ar      1 RES1   0.0000
     2 N      104.6169 101.6906  79.9683   N.ar      1 RES1   0.0000
     3 C      104.6813 100.7431  80.9275   C.ar      1 RES1   0.0000
     4 C      103.5149 100.0320  81.1955   C.ar      1 RES1   0.0000
     5 C      102.3551 100.3136  80.4911   C.ar      1 RES1   0.0000
     6 N      102.3300 101.2643  79.5419   N.ar      1 RES1   0.0000
     7 N      101.4091  99.4838  80.9629   N.ar      1 RES1   0.0000
     8 C      101.9434  98.6978  81.9203   C.ar      1 RES1   0.0000
     9 N      103.2402  99.0420  82.0648   N.ar      1 RES1   0.0000
    10 C      100.1293  99.4272  80.4996   C.3       1 RES1   0.0000
    11 C      100.0333  98.6546  79.1675   C.3       1 RES1   0.0000
    12 C       98.6225  98.0254  79.2005   C.3       1 RES1   0.0000
    13 C       98.0779  98.4312  80.5880   C.3       1 RES1   0.0000
    14 O       99.2641  98.6701  81.3506   O.3       1 RES1   0.0000
    15 C       97.1916  97.3455  81.2338   C.3       1 RES1   0.0000
    16 O       95.9518  97.2232  80.5283   O.3       1 RES1   0.0000
    17 P       94.5163  97.1498  81.2330   P.3       1 RES1   0.0000
    18 O       94.4881  96.0070  82.1887   O.2       1 RES1   0.0000
    19 O       94.2396  98.5106  82.0277   O.3       1 RES1   0.0000
    20 O       93.3893  96.9179  80.1197   O.3       1 RES1   0.0000
    21 P       92.4770  98.2214  79.9380   P.3       1 RES1   0.0000
    22 O       93.3372  99.3667  79.5278   O.2       1 RES1   0.0000
    23 O       91.7661  98.5824  81.3252   O.3       1 RES1   0.0000
    24 O       91.3556  97.9626  78.8249   O.3       1 RES1   0.0000
    25 P       90.4345  99.2560  78.6183   P.3       1 RES1   0.0000
    26 O       89.4071  98.9618  77.5802   O.2       1 RES1   0.0000
    27 O       89.7025  99.6300  79.9911   O.3       1 RES1   0.0000
    28 O       91.3288 100.4923  78.1365   O.3       1 RES1   0.0000
    29 O       97.7996  98.5485  78.1511   O.3       1 RES1   0.0000
    30 O      100.2287  99.4986  78.0263   O.3       1 RES1   0.0000
    31 N      105.8252 100.4926  81.6000   N.pl3     1 RES1   0.0000
    32 H1     103.4696 102.7110  78.5298   H         1 RES1   0.0000
    33 H2     101.4284  97.9238  82.4780   H         1 RES1   0.0000
    34 H3      99.7186 100.4426  80.3877   H         1 RES1   0.0000
    35 H4     100.7864  97.8516  79.1696   H         1 RES1   0.0000
    36 H5      98.7126  96.9315  79.1108   H         1 RES1   0.0000
    37 H6      97.5215  99.3755  80.4869   H         1 RES1   0.0000
    38 H7      96.9619  97.6239  82.2730   H         1 RES1   0.0000
    39 H8      97.7197  96.3803  81.2249   H         1 RES1   0.0000
    40 H9      94.4016  98.3753  82.9538   H         1 RES1   0.0000
    41 H10     92.4100  98.9309  81.9303   H         1 RES1   0.0000
    42 H11     88.7918  99.8381  79.8181   H         1 RES1   0.0000
    43 H12     91.5801 101.0143  78.8894   H         1 RES1   0.0000
    44 H13     98.0624  98.1873  77.3121   H         1 RES1   0.0000
    45 H14     99.6886  99.2117  77.2991   H         1 RES1   0.0000
    46 H15    106.6761 101.0316  81.3845   H         1 RES1   0.0000
    47 H16    105.8487  99.7642  82.3283   H         1 RES1   0.0000
    48 ****   105.4366 102.2204  79.7510   Du        1 RES1   0.0000
    49 ****   101.4915 101.4640  79.0348   Du        1 RES1   0.0000
    50 ****   103.8866  98.6316  82.7080   Du        1 RES1   0.0000
    51 ****    99.6955  97.8042  81.6039   Du        1 RES1   0.0000
    52 ****    99.0477  99.1891  82.1775   Du        1 RES1   0.0000
    53 ****    94.8467  95.1153  81.9125   Du        1 RES1   0.0000
    54 ****    94.1107  96.1318  83.1063   Du        1 RES1   0.0000
    55 ****    93.2882  98.7877  81.8928   Du        1 RES1   0.0000
    56 ****    94.8472  99.2266  81.6841   Du        1 RES1   0.0000
    57 ****    94.1791  99.5647  80.0299   Du        1 RES1   0.0000
    58 ****    93.0727  99.9375  78.7505   Du        1 RES1   0.0000
    59 ****    91.3558  97.7574  81.7139   Du        1 RES1   0.0000
    60 ****    91.0537  99.2660  81.1665   Du        1 RES1   0.0000
    61 ****    89.6890  98.6669  76.6672   Du        1 RES1   0.0000
    62 ****    88.4356  99.0592  77.7965   Du        1 RES1   0.0000
    63 ****    90.1526 100.4218  80.4039   Du        1 RES1   0.0000
    64 ****    89.7534  98.8530  80.6184   Du        1 RES1   0.0000
    65 ****    90.8024 101.0566  77.5006   Du        1 RES1   0.0000
    66 ****    92.1498 100.1513  77.6785   Du        1 RES1   0.0000
    67 ****    97.8924  99.5438  78.1248   Du        1 RES1   0.0000
    68 ****    96.8457  98.3072  78.3293   Du        1 RES1   0.0000
    69 ****   101.1904  99.4648  77.7541   Du        1 RES1   0.0000
    70 ****    99.9832 100.4377  78.2669   Du        1 RES1   0.0000
@<TRIPOS>BOND
     1     1     2   ar
     2     2     3   ar
     3     3     4   ar
     4     4     5   ar
     5     5     6   ar
     6     1     6   ar
     7     5     7   ar
     8     7     8   ar
     9     8     9   ar
    10     4     9   ar
    11     7    10    1
    12    10    11    1
    13    11    12    1
    14    12    13    1
    15    13    14    1
    16    10    14    1
    17    13    15    1
    18    15    16    1
    19    16    17    1
    20    17    18    2
    21    17    19    1
    22    17    20    1
    23    20    21    1
    24    21    22    2
    25    21    23    1
    26    21    24    1
    27    24    25    1
    28    25    26    2
    29    25    27    1
    30    25    28    1
    31    12    29    1
    32    11    30    1
    33     3    31    1
    34     1    32    1
    35     8    33    1
    36    10    34    1
    37    11    35    1
    38    12    36    1
    39    13    37    1
    40    15    38    1
    41    15    39    1
    42    19    40    1
    43    23    41    1
    44    27    42    1
    45    28    43    1
    46    29    44    1
    47    30    45    1
    48    31    46    1
    49    31    47    1
    50     2    48    1
    51     6    49    1
    52     9    50    1
    53    14    51    1
    54    14    52    1
    55    18    53    1
    56    18    54    1
    57    19    55    1
    58    19    56    1
    59    22    57    1
    60    22    58    1
    61    23    59    1
    62    23    60    1
    63    26    61    1
    64    26    62    1
    65    27    63    1
    66    27    64    1
    67    28    65    1
    68    28    66    1
    69    29    67    1
    70    29    68    1
    71    30    69    1
    72    30    70    1
@<TRIPOS>SUBSTRUCTURE
     1 RES1        1 GROUP             0 ****  ****    0  
@<TRIPOS>MOLECULE
ATP|ATP|mol2|1|dock7
    70    72     1     0     0
SMALL
NO_CHARGES
****
Generated from the CSD

@<TRIPOS>ATOM
     1 C      103.5280 100.9592  81.9202   C.ar      1 RES1   0.0000
     2 N      104.2805 101.7095  81.0825   N.ar      1 RES1   0.0000
     3 C      104.0647 101.7164  79.7501   C.ar      1 RES1   0.0000
     4 C      103.0317 100.9156  79.2709   C.ar      1 RES1   0.0000
     5 C      102.2801 100.1546  80.1521   C.ar      1 RES1   0.0000
     6 N      102.5241 100.1745  81.4733   N.ar      1 RES1   0.0000
     7 N      101.3743  99.4936  79.4113   N.ar      1 RES1   0.0000
     8 C      101.5327  99.8256  78.1134   C.ar      1 RES1   0.0000
     9 N      102.5587 100.6983  78.0299   N.ar      1 RES1   0.0000
    10 C      100.4220  98.6605  79.9163   C.3       1 RES1   0.0000
    11 C       99.5998  99.3367  81.0330   C.3       1 RES1   0.0000
    12 C       98.2090  98.6717  80.9290   C.3       1 RES1   0.0000
    13 C       98.3457  97.7369  79.7066   C.3       1 RES1   0.0000
    14 O       99.4132  98.3262  78.9589   O.3       1 RES1   0.0000
    15 C       97.0514  97.6346  78.8726   C.3       1 RES1   0.0000
    16 O       96.1639  98.7131  79.1872   O.3       1 RES1   0.0000
    17 P       94.8289  98.5582  80.0569   P.3       1 RES1   0.0000
    18 O       94.1297  97.2986  79.6768   O.2       1 RES1   0.0000
    19 O       95.2052  98.5057  81.6111   O.3       1 RES1   0.0000
    20 O       93.8567  99.7958  79.7626   O.3       1 RES1   0.0000
    21 P       92.6389  99.8363  80.8017   P.3       1 RES1   0.0000
    22 O       92.7522 101.0629  81.6398   O.2       1 RES1   0.0000
    23 O       92.6985  98.5534  81.7560   O.3       1 RES1   0.0000
    24 O       91.2421  99.8441  80.0190   O.3       1 RES1   0.0000
    25 P       90.0074  99.8964  81.0372   P.3       1 RES1   0.0000
    26 O       90.0933 101.1463  81.8435   O.2       1 RES1   0.0000
    27 O       88.6290  99.8888  80.2247   O.3       1 RES1   0.0000
    28 O       90.0550  98.6338  82.0190   O.3       1 RES1   0.0000
    29 O       97.9028  97.9279  82.1144   O.3       1 RES1   0.0000
    30 O      100.1894  99.1707  82.3282   O.3       1 RES1   0.0000
    31 N      104.8158 102.4661  78.9149   N.pl3     1 RES1   0.0000
    32 H1     103.7377 100.9888  82.9832   H         1 RES1   0.0000
    33 H2     100.9431  99.4609  77.2800   H         1 RES1   0.0000
    34 H3     100.8841  97.7318  80.2851   H         1 RES1   0.0000
    35 H4      99.5048 100.4090  80.8022   H         1 RES1   0.0000
    36 H5      97.4488  99.4491  80.7545   H         1 RES1   0.0000
    37 H6      98.6607  96.7419  80.0561   H         1 RES1   0.0000
    38 H7      96.5333  96.6927  79.1060   H         1 RES1   0.0000
    39 H8      97.2970  97.6577  77.8003   H         1 RES1   0.0000
    40 H9      94.6270  97.8981  82.0569   H         1 RES1   0.0000
    41 H10     93.5683  98.1731  81.7222   H         1 RES1   0.0000
    42 H11     87.9562  99.4665  80.7460   H         1 RES1   0.0000
    43 H12     90.4652  97.9015  81.5741   H         1 RES1   0.0000
    44 H13     97.0484  98.1750  82.4496   H         1 RES1   0.0000
    45 H14     99.6119  99.5026  83.0060   H         1 RES1   0.0000
    46 H15    105.5749 103.0511  79.2923   H         1 RES1   0.0000
    47 H16    104.6315 102.4539  77.9012   H         1 RES1   0.0000
    48 ****   105.0151 102.2732  81.4601   Du        1 RES1   0.0000
    49 ****   101.9789  99.6249  82.1063   Du        1 RES1   0.0000
    50 ****   102.9078 101.1127  77.1894   Du        1 RES1   0.0000
    51 ****    99.0951  99.1483  78.4868   Du        1 RES1   0.0000
    52 ****    99.7705  97.6747  78.2897   Du        1 RES1   0.0000
    53 ****    93.9911  97.0753  78.7120   Du        1 RES1   0.0000
    54 ****    93.7991  96.6765  80.3865   Du        1 RES1   0.0000
    55 ****    95.1025  99.4170  82.0098   Du        1 RES1   0.0000
    56 ****    96.1522  98.2015  81.7146   Du        1 RES1   0.0000
    57 ****    92.8677 101.9563  81.2056   Du        1 RES1   0.0000
    58 ****    92.7126 100.9929  82.6366   Du        1 RES1   0.0000
    59 ****    92.0276  97.8784  81.4491   Du        1 RES1   0.0000
    60 ****    92.4907  98.8268  82.6952   Du        1 RES1   0.0000
    61 ****    89.8798 102.0282  81.4231   Du        1 RES1   0.0000
    62 ****    90.3644 101.1034  82.8051   Du        1 RES1   0.0000
    63 ****    88.7500  99.3879  79.3677   Du        1 RES1   0.0000
    64 ****    88.3546 100.8295  80.0252   Du        1 RES1   0.0000
    65 ****    89.1241  98.3831  82.2848   Du        1 RES1   0.0000
    66 ****    90.5836  98.8662  82.8354   Du        1 RES1   0.0000
    67 ****    98.5964  98.1161  82.8097   Du        1 RES1   0.0000
    68 ****    97.9026  96.9513  81.8996   Du        1 RES1   0.0000
    69 ****   101.0550  99.6703  82.3611   Du        1 RES1   0.0000
    70 ****   100.3594  98.1985  82.4891   Du        1 RES1   0.0000
@<TRIPOS>BOND
     1     1     2   ar
     2     2     3   ar
     3     3     4   ar
     4     4     5   ar
     5     5     6   ar
     6     1     6   ar
     7     5     7   ar
     8     7     8   ar
     9     8     9   ar
    10     4     9   ar
    11     7    10    1
    12    10    11    1
    13    11    12    1
    14    12    13    1
    15    13    14    1
    16    10    14    1
    17    13    15    1
    18    15    16    1
    19    16    17    1
    20    17    18    2
    21    17    19    1
    22    17    20    1
    23    20    21    1
    24    21    22    2
    25    21    23    1
    26    21    24    1
    27    24    25    1
    28    25    26    2
    29    25    27    1
    30    25    28    1
    31    12    29    1
    32    11    30    1
    33     3    31    1
    34     1    32    1
    35     8    33    1
    36    10    34    1
    37    11    35    1
    38    12    36    1
    39    13    37    1
    40    15    38    1
    41    15    39    1
    42    19    40    1
    43    23    41    1
    44    27    42    1
    45    28    43    1
    46    29    44    1
    47    30    45    1
    48    31    46    1
    49    31    47    1
    50     2    48    1
    51     6    49    1
    52     9    50    1
    53    14    51    1
    54    14    52    1
    55    18    53    1
    56    18    54    1
    57    19    55    1
    58    19    56    1
    59    22    57    1
    60    22    58    1
    61    23    59    1
    62    23    60    1
    63    26    61    1
    64    26    62    1
    65    27    63    1
    66    27    64    1
    67    28    65    1
    68    28    66    1
    69    29    67    1
    70    29    68    1
    71    30    69    1
    72    30    70    1
@<TRIPOS>SUBSTRUCTURE
     1 RES1        1 GROUP             0 ****  ****    0  
@<TRIPOS>MOLECULE
ATP|ATP|mol2|1|dock9
    70    72     1     0     0
SMALL
NO_CHARGES
****
Generated from the CSD

@<TRIPOS>ATOM
     1 C      102.3021  96.6555  82.0485   C.ar      1 RES1   0.0000
     2 N      103.1568  97.6766  81.8086   N.ar      1 RES1   0.0000
     3 C      102.7556  98.8056  81.1870   C.ar      1 RES1   0.0000
     4 C      101.4200  98.8761  80.8005   C.ar      1 RES1   0.0000
     5 C      100.5684  97.8131  81.0558   C.ar      1 RES1   0.0000
     6 N      101.0044  96.7050  81.6784   N.ar      1 RES1   0.0000
     7 N       99.3638  98.1627  80.5732   N.ar      1 RES1   0.0000
     8 C       99.4391  99.4002  80.0417   C.ar      1 RES1   0.0000
     9 N      100.7092  99.8349  80.1787   N.ar      1 RES1   0.0000
    10 C       98.2430  97.3933  80.6606   C.3       1 RES1   0.0000
    11 C       97.9620  96.9488  82.1111   C.3       1 RES1   0.0000
    12 C       96.4231  96.8244  82.1730   C.3       1 RES1   0.0000
    13 C       95.9660  97.2910  80.7731   C.3       1 RES1   0.0000
    14 O       97.0507  98.1102  80.3283   O.3       1 RES1   0.0000
    15 C       94.6337  98.0693  80.7974   C.3       1 RES1   0.0000
    16 O       93.5357  97.1797  81.0276   O.3       1 RES1   0.0000
    17 P       92.0995  97.3215  80.3351   P.3       1 RES1   0.0000
    18 O       91.4371  98.5681  80.8119   O.2       1 RES1   0.0000
    19 O       92.2753  97.3907  78.7463   O.3       1 RES1   0.0000
    20 O       91.1891  96.0679  80.7388   O.3       1 RES1   0.0000
    21 P       92.0560  94.7239  80.8197   P.3       1 RES1   0.0000
    22 O       93.0805  94.8669  81.8920   O.2       1 RES1   0.0000
    23 O       92.8010  94.4754  79.4257   O.3       1 RES1   0.0000
    24 O       91.1101  93.4724  81.1400   O.3       1 RES1   0.0000
    25 P       91.9662  92.1329  81.3317   P.3       1 RES1   0.0000
    26 O       92.7753  91.8918  80.1041   O.2       1 RES1   0.0000
    27 O       92.9477  92.2869  82.5861   O.3       1 RES1   0.0000
    28 O       90.9884  90.8887  81.5690   O.3       1 RES1   0.0000
    29 O       96.0244  95.4709  82.4205   O.3       1 RES1   0.0000
    30 O       98.6233  95.7236  82.4492   O.3       1 RES1   0.0000
    31 N      103.6092  99.8244  80.9485   N.pl3     1 RES1   0.0000
    32 H1     102.6705  95.7699  82.5534   H         1 RES1   0.0000
    33 H2      98.6267  99.9541  79.5849   H         1 RES1   0.0000
    34 H3      98.3282  96.5182  79.9980   H         1 RES1   0.0000
    35 H4      98.2869  97.7479  82.7949   H         1 RES1   0.0000
    36 H5      96.0383  97.4899  82.9615   H         1 RES1   0.0000
    37 H6      95.8887  96.4118  80.1153   H         1 RES1   0.0000
    38 H7      94.4725  98.5591  79.8256   H         1 RES1   0.0000
    39 H8      94.6636  98.8334  81.5885   H         1 RES1   0.0000
    40 H9      92.2418  96.5128  78.3852   H         1 RES1   0.0000
    41 H10     92.8593  95.2938  78.9470   H         1 RES1   0.0000
    42 H11     92.9021  91.5037  83.1221   H         1 RES1   0.0000
    43 H12     90.7740  90.8256  82.4923   H         1 RES1   0.0000
    44 H13     95.9910  94.9808  81.6069   H         1 RES1   0.0000
    45 H14     98.6432  95.6008  83.3914   H         1 RES1   0.0000
    46 H15    104.5932  99.7497  81.2437   H         1 RES1   0.0000
    47 H16    103.2787 100.6760  80.4719   H         1 RES1   0.0000
    48 ****   104.1100  97.5927  82.0992   Du        1 RES1   0.0000
    49 ****   100.3867  95.9404  81.8620   Du        1 RES1   0.0000
    50 ****   101.0620 100.7186  79.8709   Du        1 RES1   0.0000
    51 ****    97.0341  98.9939  80.7959   Du        1 RES1   0.0000
    52 ****    96.9953  98.2549  79.3403   Du        1 RES1   0.0000
    53 ****    91.3675  98.7538  81.7921   Du        1 RES1   0.0000
    54 ****    91.0621  99.2189  80.1518   Du        1 RES1   0.0000
    55 ****    93.1571  97.8081  78.5265   Du        1 RES1   0.0000
    56 ****    91.5388  97.9411  78.3532   Du        1 RES1   0.0000
    57 ****    93.1815  94.1535  82.5854   Du        1 RES1   0.0000
    58 ****    93.6672  95.6763  81.9183   Du        1 RES1   0.0000
    59 ****    92.2852  93.8099  78.8862   Du        1 RES1   0.0000
    60 ****    93.7211  94.1236  79.5977   Du        1 RES1   0.0000
    61 ****    92.3216  91.7835  79.2195   Du        1 RES1   0.0000
    62 ****    93.7720  91.8382  80.1647   Du        1 RES1   0.0000
    63 ****    92.6717  93.0794  83.1299   Du        1 RES1   0.0000
    64 ****    93.8850  92.4149  82.2621   Du        1 RES1   0.0000
    65 ****    91.4416  90.0476  81.2739   Du        1 RES1   0.0000
    66 ****    90.1496  91.0186  81.0402   Du        1 RES1   0.0000
    67 ****    95.1190  95.4667  82.8451   Du        1 RES1   0.0000
    68 ****    96.6837  95.0409  83.0373   Du        1 RES1   0.0000
    69 ****    99.5607  95.7501  82.1020   Du        1 RES1   0.0000
    70 ****    98.1336  94.9596  82.0291   Du        1 RES1   0.0000
@<TRIPOS>BOND
     1     1     2   ar
     2     2     3   ar
     3     3     4   ar
     4     4     5   ar
     5     5     6   ar
     6     1     6   ar
     7     5     7   ar
     8     7     8   ar
     9     8     9   ar
    10     4     9   ar
    11     7    10    1
    12    10    11    1
    13    11    12    1
    14    12    13    1
    15    13    14    1
    16    10    14    1
    17    13    15    1
    18    15    16    1
    19    16    17    1
    20    17    18    2
    21    17    19    1
    22    17    20    1
    23    20    21    1
    24    21    22    2
    25    21    23    1
    26    21    24    1
    27    24    25    1
    28    25    26    2
    29    25    27    1
    30    25    28    1
    31    12    29    1
    32    11    30    1
    33     3    31    1
    34     1    32    1
    35     8    33    1
    36    10    34    1
    37    11    35    1
    38    12    36    1
    39    13    37    1
    40    15    38    1
    41    15    39    1
    42    19    40    1
    43    23    41    1
    44    27    42    1
    45    28    43    1
    46    29    44    1
    47    30    45    1
    48    31    46    1
    49    31    47    1
    50     2    48    1
    51     6    49    1
    52     9    50    1
    53    14    51    1
    54    14    52    1
    55    18    53    1
    56    18    54    1
    57    19    55    1
    58    19    56    1
    59    22    57    1
    60    22    58    1
    61    23    59    1
    62    23    60    1
    63    26    61    1
    64    26    62    1
    65    27    63    1
    66    27    64    1
    67    28    65    1
    68    28    66    1
    69    29    67    1
    70    29    68    1
    71    30    69    1
    72    30    70    1
@<TRIPOS>SUBSTRUCTURE
     1 RES1        1 GROUP             0 ****  ****    0  
@<TRIPOS>MOLECULE
ATP|ATP|mol2|1|dock16
    70    72     1     0     0
SMALL
NO_CHARGES
****
Generated from the CSD

@<TRIPOS>ATOM
     1 C       94.0683  94.4487  82.9341   C.ar      1 RES1   0.0000
     2 N       94.3633  93.4038  83.7416   N.ar      1 RES1   0.0000
     3 C       95.5986  93.2341  84.2584   C.ar      1 RES1   0.0000
     4 C       96.5614  94.1825  83.9244   C.ar      1 RES1   0.0000
     5 C       96.2317  95.2401  83.0918   C.ar      1 RES1   0.0000
     6 N       94.9898  95.3764  82.5971   N.ar      1 RES1   0.0000
     7 N       97.3467  95.9764  82.9477   N.ar      1 RES1   0.0000
     8 C       98.3438  95.4198  83.6657   C.ar      1 RES1   0.0000
     9 N       97.8578  94.3111  84.2622   N.ar      1 RES1   0.0000
    10 C       97.4244  97.1284  82.2247   C.3       1 RES1   0.0000
    11 C       98.8491  97.7204  82.2372   C.3       1 RES1   0.0000
    12 C       98.9659  98.4437  80.8768   C.3       1 RES1   0.0000
    13 C       97.6239  98.1247  80.1813   C.3       1 RES1   0.0000
    14 O       97.1951  96.9231  80.8278   O.3       1 RES1   0.0000
    15 C       97.7603  97.9363  78.6558   C.3       1 RES1   0.0000
    16 O       96.6596  97.1781  78.1423   O.3       1 RES1   0.0000
    17 P       95.7574  97.6270  76.8985   P.3       1 RES1   0.0000
    18 O       94.9164  98.7936  77.2881   O.2       1 RES1   0.0000
    19 O       96.7006  98.0405  75.6741   O.3       1 RES1   0.0000
    20 O       94.7966  96.4181  76.4755   O.3       1 RES1   0.0000
    21 P       93.8916  96.8108  75.2142   P.3       1 RES1   0.0000
    22 O       94.7755  97.1127  74.0534   O.2       1 RES1   0.0000
    23 O       93.0251  98.1123  75.5537   O.3       1 RES1   0.0000
    24 O       92.9052  95.6055  74.8428   O.3       1 RES1   0.0000
    25 P       91.9600  95.2280  76.0789   P.3       1 RES1   0.0000
    26 O       91.0808  94.0897  75.6901   O.2       1 RES1   0.0000
    27 O       92.8512  94.7980  77.3364   O.3       1 RES1   0.0000
    28 O       91.0500  96.4833  76.4742   O.3       1 RES1   0.0000
    29 O       99.1305  99.8555  81.0556   O.3       1 RES1   0.0000
    30 O       99.0693  98.6016  83.3453   O.3       1 RES1   0.0000
    31 N       95.8919  92.1913  85.0648   N.pl3     1 RES1   0.0000
    32 H1      93.0610  94.5441  82.5455   H         1 RES1   0.0000
    33 H2      99.3581  95.7923  83.7536   H         1 RES1   0.0000
    34 H3      96.6968  97.8645  82.6001   H         1 RES1   0.0000
    35 H4      99.5752  96.8936  82.2694   H         1 RES1   0.0000
    36 H5      99.8161  98.0244  80.3164   H         1 RES1   0.0000
    37 H6      96.9076  98.9287  80.4095   H         1 RES1   0.0000
    38 H7      98.6843  97.3831  78.4315   H         1 RES1   0.0000
    39 H8      97.7963  98.9186  78.1613   H         1 RES1   0.0000
    40 H9      96.8797  97.2759  75.1396   H         1 RES1   0.0000
    41 H10     92.5129  98.3596  74.7930   H         1 RES1   0.0000
    42 H11     93.6944  95.2333  77.2908   H         1 RES1   0.0000
    43 H12     90.1707  96.1862  76.6767   H         1 RES1   0.0000
    44 H13     98.5263 100.3332  80.4987   H         1 RES1   0.0000
    45 H14     98.2717  98.7139  83.8496   H         1 RES1   0.0000
    46 H15     95.1631  91.5019  85.2983   H         1 RES1   0.0000
    47 H16     96.8428  92.0835  85.4465   H         1 RES1   0.0000
    48 ****    93.6479  92.7405  83.9611   Du        1 RES1   0.0000
    49 ****    94.7552  96.1416  81.9976   Du        1 RES1   0.0000
    50 ****    98.3728  93.6912  84.8541   Du        1 RES1   0.0000
    51 ****    97.7262  96.1423  80.4989   Du        1 RES1   0.0000
    52 ****    96.2235  96.7622  80.6544   Du        1 RES1   0.0000
    53 ****    94.0535  98.9685  76.8140   Du        1 RES1   0.0000
    54 ****    95.2150  99.4018  78.0236   Du        1 RES1   0.0000
    55 ****    97.5606  98.4100  76.0259   Du        1 RES1   0.0000
    56 ****    96.2417  98.7347  75.1195   Du        1 RES1   0.0000
    57 ****    95.6774  96.6858  73.9874   Du        1 RES1   0.0000
    58 ****    94.4669  97.7422  73.3403   Du        1 RES1   0.0000
    59 ****    93.6361  98.8637  75.8027   Du        1 RES1   0.0000
    60 ****    92.4118  97.9141  76.3183   Du        1 RES1   0.0000
    61 ****    90.7052  93.4853  76.3928   Du        1 RES1   0.0000
    62 ****    90.8662  93.9300  74.7266   Du        1 RES1   0.0000
    63 ****    92.9865  93.8073  77.3258   Du        1 RES1   0.0000
    64 ****    92.3852  95.0618  78.1809   Du        1 RES1   0.0000
    65 ****    91.0166  97.1251  75.7080   Du        1 RES1   0.0000
    66 ****    91.4403  96.9391  77.2741   Du        1 RES1   0.0000
    67 ****   100.0681 100.1103  80.8190   Du        1 RES1   0.0000
    68 ****    98.9527 100.0894  82.0114   Du        1 RES1   0.0000
    69 ****    99.3686  99.4918  83.0021   Du        1 RES1   0.0000
    70 ****    99.7788  98.2160  83.9351   Du        1 RES1   0.0000
@<TRIPOS>BOND
     1     1     2   ar
     2     2     3   ar
     3     3     4   ar
     4     4     5   ar
     5     5     6   ar
     6     1     6   ar
     7     5     7   ar
     8     7     8   ar
     9     8     9   ar
    10     4     9   ar
    11     7    10    1
    12    10    11    1
    13    11    12    1
    14    12    13    1
    15    13    14    1
    16    10    14    1
    17    13    15    1
    18    15    16    1
    19    16    17    1
    20    17    18    2
    21    17    19    1
    22    17    20    1
    23    20    21    1
    24    21    22    2
    25    21    23    1
    26    21    24    1
    27    24    25    1
    28    25    26    2
    29    25    27    1
    30    25    28    1
    31    12    29    1
    32    11    30    1
    33     3    31    1
    34     1    32    1
    35     8    33    1
    36    10    34    1
    37    11    35    1
    38    12    36    1
    39    13    37    1
    40    15    38    1
    41    15    39    1
    42    19    40    1
    43    23    41    1
    44    27    42    1
    45    28    43    1
    46    29    44    1
    47    30    45    1
    48    31    46    1
    49    31    47    1
    50     2    48    1
    51     6    49    1
    52     9    50    1
    53    14    51    1
    54    14    52    1
    55    18    53    1
    56    18    54    1
    57    19    55    1
    58    19    56    1
    59    22    57    1
    60    22    58    1
    61    23    59    1
    62    23    60    1
    63    26    61    1
    64    26    62    1
    65    27    63    1
    66    27    64    1
    67    28    65    1
    68    28    66    1
    69    29    67    1
    70    29    68    1
    71    30    69    1
    72    30    70    1
@<TRIPOS>SUBSTRUCTURE
     1 RES1        1 GROUP             0 ****  ****    0  
