@<TRIPOS>MOLECULE
75.5475
    62    64     1     0     0
SMALL
NO_CHARGES
****
Generated from the CSD

@<TRIPOS>ATOM
     1 C       30.0583   2.1224  55.3802   C.3       1 RES1   0.0000
     2 O       28.8955   2.6509  54.7280   O.3       1 RES1   0.0000
     3 C       28.4914   1.8250  53.6256   C.3       1 RES1   0.0000
     4 C       27.2146   2.4037  52.9789   C.3       1 RES1   0.0000
     5 O       27.4680   2.8533  51.6405   O.3       1 RES1   0.0000
     6 C       26.3127   3.1468  50.9214   C.ar      1 RES1   0.0000
     7 C       25.1353   2.4531  51.2051   C.ar      1 RES1   0.0000
     8 C       23.9751   2.6964  50.4655   C.ar      1 RES1   0.0000
     9 C       23.9825   3.7259  49.5234   C.ar      1 RES1   0.0000
    10 C       25.1480   4.4475  49.2635   C.ar      1 RES1   0.0000
    11 C       26.3351   4.1289  49.9291   C.ar      1 RES1   0.0000
    12 O       27.5377   4.7778  49.6345   O.3       1 RES1   0.0000
    13 C       27.5371   5.8489  48.6754   C.3       1 RES1   0.0000
    14 C       28.9113   6.0141  47.9888   C.3       1 RES1   0.0000
    15 O       29.9236   5.3096  48.7217   O.3       1 RES1   0.0000
    16 C       31.2362   5.6164  48.2320   C.3       1 RES1   0.0000
    17 N       22.8558   4.0343  48.8544   N.ar      1 RES1   0.0000
    18 C       21.7112   3.3698  49.1004   C.ar      1 RES1   0.0000
    19 N       21.6838   2.3486  49.9775   N.ar      1 RES1   0.0000
    20 C       22.7973   1.9595  50.6291   C.ar      1 RES1   0.0000
    21 N       22.7476   0.8543  51.4090   N.pl3     1 RES1   0.0000
    22 C       21.6212   0.5161  52.0800   C.ar      1 RES1   0.0000
    23 C       21.6817   0.3011  53.4593   C.ar      1 RES1   0.0000
    24 C       20.5409  -0.0797  54.1672   C.ar      1 RES1   0.0000
    25 C       19.3284  -0.2474  53.4982   C.ar      1 RES1   0.0000
    26 C       19.2573  -0.0130  52.1247   C.ar      1 RES1   0.0000
    27 C       20.3947   0.3865  51.4213   C.ar      1 RES1   0.0000
    28 C       18.0063  -0.1808  51.4313   C.1       1 RES1   0.0000
    29 C       16.9604  -0.3210  50.8517   C.1       1 RES1   0.0000
    30 H1      30.9007   2.0626  54.6751   H         1 RES1   0.0000
    31 H2      29.8489   1.1222  55.7881   H         1 RES1   0.0000
    32 H3      30.3336   2.7950  56.2056   H         1 RES1   0.0000
    33 H4      29.2842   1.7809  52.8633   H         1 RES1   0.0000
    34 H5      28.2774   0.8075  53.9871   H         1 RES1   0.0000
    35 H6      26.4509   1.6130  52.9296   H         1 RES1   0.0000
    36 H7      26.8294   3.2275  53.5954   H         1 RES1   0.0000
    37 H8      25.1451   1.7285  52.0098   H         1 RES1   0.0000
    38 H9      25.1049   5.2535  48.5426   H         1 RES1   0.0000
    39 H10     26.7485   5.7211  47.9210   H         1 RES1   0.0000
    40 H11     27.3237   6.7753  49.2298   H         1 RES1   0.0000
    41 H12     29.1594   7.0841  47.9316   H         1 RES1   0.0000
    42 H13     28.8418   5.6076  46.9683   H         1 RES1   0.0000
    43 H14     31.3311   5.3244  47.1755   H         1 RES1   0.0000
    44 H15     31.9700   5.0508  48.8248   H         1 RES1   0.0000
    45 H16     31.4454   6.6917  48.3356   H         1 RES1   0.0000
    46 H17     20.8021   3.6590  48.5860   H         1 RES1   0.0000
    47 H18     23.5536   0.2144  51.4339   H         1 RES1   0.0000
    48 H19     22.6197   0.4258  53.9889   H         1 RES1   0.0000
    49 H20     20.5972  -0.2468  55.2372   H         1 RES1   0.0000
    50 H21     18.4441  -0.5574  54.0442   H         1 RES1   0.0000
    51 H22     20.3070   0.6019  50.3627   H         1 RES1   0.0000
    52 H23     16.0432  -0.4439  50.3433   H         1 RES1   0.0000
    53 ****    29.1020   3.5685  54.3882   Du        1 RES1   0.0000
    54 ****    28.1465   2.7008  55.3886   Du        1 RES1   0.0000
    55 ****    27.9681   2.1357  51.1557   Du        1 RES1   0.0000
    56 ****    28.0302   3.6790  51.6858   Du        1 RES1   0.0000
    57 ****    28.1705   4.0817  49.2955   Du        1 RES1   0.0000
    58 ****    27.8851   5.1542  50.4934   Du        1 RES1   0.0000
    59 ****    29.7648   4.3264  48.6321   Du        1 RES1   0.0000
    60 ****    29.8673   5.5698  49.6857   Du        1 RES1   0.0000
    61 ****    22.8691   4.7627  48.1695   Du        1 RES1   0.0000
    62 ****    20.8222   1.8706  50.1484   Du        1 RES1   0.0000
@<TRIPOS>BOND
     1     1     2    1
     2     2     3    1
     3     3     4    1
     4     4     5    1
     5     5     6    1
     6     6     7   ar
     7     7     8   ar
     8     8     9   ar
     9     9    10   ar
    10    10    11   ar
    11     6    11   ar
    12    11    12    1
    13    12    13    1
    14    13    14    1
    15    14    15    1
    16    15    16    1
    17     9    17   ar
    18    17    18   ar
    19    18    19   ar
    20    19    20   ar
    21     8    20   ar
    22    20    21    1
    23    21    22    1
    24    22    23   ar
    25    23    24   ar
    26    24    25   ar
    27    25    26   ar
    28    26    27   ar
    29    22    27   ar
    30    26    28    1
    31    28    29    3
    32     1    30    1
    33     1    31    1
    34     1    32    1
    35     3    33    1
    36     3    34    1
    37     4    35    1
    38     4    36    1
    39     7    37    1
    40    10    38    1
    41    13    39    1
    42    13    40    1
    43    14    41    1
    44    14    42    1
    45    16    43    1
    46    16    44    1
    47    16    45    1
    48    18    46    1
    49    21    47    1
    50    23    48    1
    51    24    49    1
    52    25    50    1
    53    27    51    1
    54    29    52    1
    55     2    53    1
    56     2    54    1
    57     5    55    1
    58     5    56    1
    59    12    57    1
    60    12    58    1
    61    15    59    1
    62    15    60    1
    63    17    61    1
    64    19    62    1
@<TRIPOS>SUBSTRUCTURE
     1 RES1        1 GROUP             0 ****  ****    0  
@<TRIPOS>MOLECULE
73.4119
    62    64     1     0     0
SMALL
NO_CHARGES
****
Generated from the CSD

@<TRIPOS>ATOM
     1 C       30.1247   2.3063  55.0366   C.3       1 RES1   0.0000
     2 O       28.8960   2.7001  54.4104   O.3       1 RES1   0.0000
     3 C       28.3958   1.6711  53.5435   C.3       1 RES1   0.0000
     4 C       27.0961   2.1486  52.8605   C.3       1 RES1   0.0000
     5 O       27.3800   2.9900  51.7340   O.3       1 RES1   0.0000
     6 C       26.2902   3.1783  50.8884   C.ar      1 RES1   0.0000
     7 C       25.1221   2.4456  51.1042   C.ar      1 RES1   0.0000
     8 C       24.0317   2.5823  50.2413   C.ar      1 RES1   0.0000
     9 C       24.0876   3.5485  49.2359   C.ar      1 RES1   0.0000
    10 C       25.2403   4.3100  49.0407   C.ar      1 RES1   0.0000
    11 C       26.3681   4.0949  49.8379   C.ar      1 RES1   0.0000
    12 O       27.5643   4.7835  49.6169   O.3       1 RES1   0.0000
    13 C       27.7004   5.5852  48.4311   C.3       1 RES1   0.0000
    14 C       29.1196   6.1795  48.2919   C.3       1 RES1   0.0000
    15 O       30.1097   5.1633  48.5048   O.3       1 RES1   0.0000
    16 C       31.4381   5.6915  48.3888   C.3       1 RES1   0.0000
    17 N       23.0205   3.7563  48.4419   N.ar      1 RES1   0.0000
    18 C       21.8875   3.0520  48.6214   C.ar      1 RES1   0.0000
    19 N       21.8178   2.0888  49.5597   N.ar      1 RES1   0.0000
    20 C       22.8770   1.7989  50.3407   C.ar      1 RES1   0.0000
    21 N       22.7985   0.7447  51.1861   N.pl3     1 RES1   0.0000
    22 C       21.6819   0.5077  51.9144   C.ar      1 RES1   0.0000
    23 C       21.7688   0.4565  53.3080   C.ar      1 RES1   0.0000
    24 C       20.6379   0.1818  54.0782   C.ar      1 RES1   0.0000
    25 C       19.4090  -0.0429  53.4578   C.ar      1 RES1   0.0000
    26 C       19.3119   0.0286  52.0678   C.ar      1 RES1   0.0000
    27 C       20.4398   0.3223  51.2999   C.ar      1 RES1   0.0000
    28 C       18.0439  -0.1985  51.4238   C.1       1 RES1   0.0000
    29 C       16.9840  -0.3883  50.8852   C.1       1 RES1   0.0000
    30 H1      30.8938   2.0995  54.2776   H         1 RES1   0.0000
    31 H2      29.9703   1.4108  55.6568   H         1 RES1   0.0000
    32 H3      30.4714   3.1300  55.6775   H         1 RES1   0.0000
    33 H4      29.1345   1.4274  52.7647   H         1 RES1   0.0000
    34 H5      28.1769   0.7675  54.1327   H         1 RES1   0.0000
    35 H6      26.5433   1.2706  52.4942   H         1 RES1   0.0000
    36 H7      26.4697   2.6802  53.5900   H         1 RES1   0.0000
    37 H8      25.0836   1.7753  51.9538   H         1 RES1   0.0000
    38 H9      25.2338   5.0650  48.2655   H         1 RES1   0.0000
    39 H10     27.4334   5.0232  47.5255   H         1 RES1   0.0000
    40 H11     26.9923   6.4221  48.5273   H         1 RES1   0.0000
    41 H12     29.2444   6.9904  49.0245   H         1 RES1   0.0000
    42 H13     29.2257   6.5938  47.2777   H         1 RES1   0.0000
    43 H14     31.6016   6.1051  47.3825   H         1 RES1   0.0000
    44 H15     32.1539   4.8738  48.5582   H         1 RES1   0.0000
    45 H16     31.6082   6.4770  49.1403   H         1 RES1   0.0000
    46 H17     21.0223   3.2615  48.0031   H         1 RES1   0.0000
    47 H18     23.5701   0.0640  51.2212   H         1 RES1   0.0000
    48 H19     22.7197   0.6268  53.8006   H         1 RES1   0.0000
    49 H20     20.7148   0.1416  55.1592   H         1 RES1   0.0000
    50 H21     18.5322  -0.2708  54.0538   H         1 RES1   0.0000
    51 H22     20.3325   0.4124  50.2251   H         1 RES1   0.0000
    52 H23     16.0544  -0.5548  50.4130   H         1 RES1   0.0000
    53 ****    29.0555   3.5285  53.8736   Du        1 RES1   0.0000
    54 ****    28.2155   2.8877  55.1188   Du        1 RES1   0.0000
    55 ****    28.1204   2.5729  51.2069   Du        1 RES1   0.0000
    56 ****    27.6746   3.8834  52.0732   Du        1 RES1   0.0000
    57 ****    28.2950   4.1011  49.5943   Du        1 RES1   0.0000
    58 ****    27.7006   5.3919  50.3987   Du        1 RES1   0.0000
    59 ****    29.9863   4.4416  47.8237   Du        1 RES1   0.0000
    60 ****    29.9909   4.7808  49.4211   Du        1 RES1   0.0000
    61 ****    23.0700   4.4392  47.7131   Du        1 RES1   0.0000
    62 ****    20.9654   1.5798  49.6790   Du        1 RES1   0.0000
@<TRIPOS>BOND
     1     1     2    1
     2     2     3    1
     3     3     4    1
     4     4     5    1
     5     5     6    1
     6     6     7   ar
     7     7     8   ar
     8     8     9   ar
     9     9    10   ar
    10    10    11   ar
    11     6    11   ar
    12    11    12    1
    13    12    13    1
    14    13    14    1
    15    14    15    1
    16    15    16    1
    17     9    17   ar
    18    17    18   ar
    19    18    19   ar
    20    19    20   ar
    21     8    20   ar
    22    20    21    1
    23    21    22    1
    24    22    23   ar
    25    23    24   ar
    26    24    25   ar
    27    25    26   ar
    28    26    27   ar
    29    22    27   ar
    30    26    28    1
    31    28    29    3
    32     1    30    1
    33     1    31    1
    34     1    32    1
    35     3    33    1
    36     3    34    1
    37     4    35    1
    38     4    36    1
    39     7    37    1
    40    10    38    1
    41    13    39    1
    42    13    40    1
    43    14    41    1
    44    14    42    1
    45    16    43    1
    46    16    44    1
    47    16    45    1
    48    18    46    1
    49    21    47    1
    50    23    48    1
    51    24    49    1
    52    25    50    1
    53    27    51    1
    54    29    52    1
    55     2    53    1
    56     2    54    1
    57     5    55    1
    58     5    56    1
    59    12    57    1
    60    12    58    1
    61    15    59    1
    62    15    60    1
    63    17    61    1
    64    19    62    1
@<TRIPOS>SUBSTRUCTURE
     1 RES1        1 GROUP             0 ****  ****    0  
@<TRIPOS>MOLECULE
72.0679
    62    64     1     0     0
SMALL
NO_CHARGES
****
Generated from the CSD

@<TRIPOS>ATOM
     1 C       28.6508   6.0079  48.4055   C.3       1 RES1   0.0000
     2 O       28.1130   4.7582  48.8590   O.3       1 RES1   0.0000
     3 C       26.7496   4.8977  49.2858   C.3       1 RES1   0.0000
     4 C       26.2648   3.5797  49.9272   C.3       1 RES1   0.0000
     5 O       26.9371   3.3282  51.1691   O.3       1 RES1   0.0000
     6 C       26.3340   2.3387  51.9407   C.ar      1 RES1   0.0000
     7 C       24.9543   2.1474  51.8516   C.ar      1 RES1   0.0000
     8 C       24.3194   1.1929  52.6503   C.ar      1 RES1   0.0000
     9 C       25.1018   0.3555  53.4467   C.ar      1 RES1   0.0000
    10 C       26.4860   0.5187  53.5096   C.ar      1 RES1   0.0000
    11 C       27.1060   1.5451  52.7915   C.ar      1 RES1   0.0000
    12 O       28.4790   1.7864  52.8948   O.3       1 RES1   0.0000
    13 C       29.1514   1.4808  54.1284   C.3       1 RES1   0.0000
    14 C       29.8096   0.0833  54.1000   C.3       1 RES1   0.0000
    15 O       28.8112  -0.9360  53.9506   O.3       1 RES1   0.0000
    16 C       29.3855  -2.1728  53.5062   C.3       1 RES1   0.0000
    17 N       24.5225  -0.6252  54.1642   N.ar      1 RES1   0.0000
    18 C       23.1918  -0.8201  54.1059   C.ar      1 RES1   0.0000
    19 N       22.4088  -0.0048  53.3744   N.ar      1 RES1   0.0000
    20 C       22.9306   1.0292  52.6856   C.ar      1 RES1   0.0000
    21 N       22.0927   1.8909  52.0629   N.pl3     1 RES1   0.0000
    22 C       20.9225   1.4715  51.5264   C.ar      1 RES1   0.0000
    23 C       20.6363   1.7619  50.1900   C.ar      1 RES1   0.0000
    24 C       19.4230   1.3683  49.6240   C.ar      1 RES1   0.0000
    25 C       18.4856   0.6785  50.3930   C.ar      1 RES1   0.0000
    26 C       18.7750   0.3668  51.7218   C.ar      1 RES1   0.0000
    27 C       19.9969   0.7443  52.2810   C.ar      1 RES1   0.0000
    28 C       17.8117  -0.3490  52.5178   C.1       1 RES1   0.0000
    29 C       17.0065  -0.9475  53.1833   C.1       1 RES1   0.0000
    30 H1      28.6236   6.7540  49.2136   H         1 RES1   0.0000
    31 H2      28.0804   6.3810  47.5417   H         1 RES1   0.0000
    32 H3      29.6963   5.8507  48.1029   H         1 RES1   0.0000
    33 H4      26.6563   5.7060  50.0271   H         1 RES1   0.0000
    34 H5      26.1134   5.1257  48.4170   H         1 RES1   0.0000
    35 H6      25.1879   3.6615  50.1378   H         1 RES1   0.0000
    36 H7      26.4247   2.7480  49.2274   H         1 RES1   0.0000
    37 H8      24.3942   2.7529  51.1500   H         1 RES1   0.0000
    38 H9      27.0583  -0.1669  54.1208   H         1 RES1   0.0000
    39 H10     29.8958   2.2461  54.3882   H         1 RES1   0.0000
    40 H11     28.3852   1.4766  54.9184   H         1 RES1   0.0000
    41 H12     30.3714  -0.0696  55.0332   H         1 RES1   0.0000
    42 H13     30.5088   0.0449  53.2508   H         1 RES1   0.0000
    43 H14     29.8719  -2.0421  52.5280   H         1 RES1   0.0000
    44 H15     28.5799  -2.9149  53.4068   H         1 RES1   0.0000
    45 H16     30.1223  -2.5406  54.2360   H         1 RES1   0.0000
    46 H17     22.7456  -1.6414  54.6546   H         1 RES1   0.0000
    47 H18     22.3085   2.8975  52.0630   H         1 RES1   0.0000
    48 H19     21.3565   2.3001  49.5837   H         1 RES1   0.0000
    49 H20     19.2080   1.5999  48.5866   H         1 RES1   0.0000
    50 H21     17.5362   0.3846  49.9591   H         1 RES1   0.0000
    51 H22     20.2165   0.4563  53.3025   H         1 RES1   0.0000
    52 H23     16.3002  -1.4723  53.7670   H         1 RES1   0.0000
    53 ****    28.6619   4.4274  49.6267   Du        1 RES1   0.0000
    54 ****    28.1534   4.0961  48.1106   Du        1 RES1   0.0000
    55 ****    26.9510   4.1766  51.6982   Du        1 RES1   0.0000
    56 ****    27.8749   3.0448  50.9689   Du        1 RES1   0.0000
    57 ****    28.6190   2.7608  52.7188   Du        1 RES1   0.0000
    58 ****    28.9252   1.2508  52.1778   Du        1 RES1   0.0000
    59 ****    28.1346  -0.6323  53.2797   Du        1 RES1   0.0000
    60 ****    28.3633  -1.0839  54.8323   Du        1 RES1   0.0000
    61 ****    25.0850  -1.2135  54.7452   Du        1 RES1   0.0000
    62 ****    21.4229  -0.1695  53.3417   Du        1 RES1   0.0000
@<TRIPOS>BOND
     1     1     2    1
     2     2     3    1
     3     3     4    1
     4     4     5    1
     5     5     6    1
     6     6     7   ar
     7     7     8   ar
     8     8     9   ar
     9     9    10   ar
    10    10    11   ar
    11     6    11   ar
    12    11    12    1
    13    12    13    1
    14    13    14    1
    15    14    15    1
    16    15    16    1
    17     9    17   ar
    18    17    18   ar
    19    18    19   ar
    20    19    20   ar
    21     8    20   ar
    22    20    21    1
    23    21    22    1
    24    22    23   ar
    25    23    24   ar
    26    24    25   ar
    27    25    26   ar
    28    26    27   ar
    29    22    27   ar
    30    26    28    1
    31    28    29    3
    32     1    30    1
    33     1    31    1
    34     1    32    1
    35     3    33    1
    36     3    34    1
    37     4    35    1
    38     4    36    1
    39     7    37    1
    40    10    38    1
    41    13    39    1
    42    13    40    1
    43    14    41    1
    44    14    42    1
    45    16    43    1
    46    16    44    1
    47    16    45    1
    48    18    46    1
    49    21    47    1
    50    23    48    1
    51    24    49    1
    52    25    50    1
    53    27    51    1
    54    29    52    1
    55     2    53    1
    56     2    54    1
    57     5    55    1
    58     5    56    1
    59    12    57    1
    60    12    58    1
    61    15    59    1
    62    15    60    1
    63    17    61    1
    64    19    62    1
@<TRIPOS>SUBSTRUCTURE
     1 RES1        1 GROUP             0 ****  ****    0  
@<TRIPOS>MOLECULE
70.3319
    62    64     1     0     0
SMALL
NO_CHARGES
****
Generated from the CSD

@<TRIPOS>ATOM
     1 C       20.5844   0.3105  54.4083   C.3       1 RES1   0.0000
     2 O       21.0021  -1.0312  54.1214   O.3       1 RES1   0.0000
     3 C       22.4119  -1.1984  54.3334   C.3       1 RES1   0.0000
     4 C       23.1987  -0.3323  53.3262   C.3       1 RES1   0.0000
     5 O       24.3899   0.2024  53.9201   O.3       1 RES1   0.0000
     6 C       25.1193   1.0250  53.0661   C.ar      1 RES1   0.0000
     7 C       24.4503   1.7558  52.0831   C.ar      1 RES1   0.0000
     8 C       25.1648   2.5517  51.1841   C.ar      1 RES1   0.0000
     9 C       26.5413   2.6966  51.3622   C.ar      1 RES1   0.0000
    10 C       27.2086   1.9969  52.3682   C.ar      1 RES1   0.0000
    11 C       26.5064   1.1180  53.1976   C.ar      1 RES1   0.0000
    12 O       27.1566   0.3421  54.1615   O.3       1 RES1   0.0000
    13 C       28.5928   0.3657  54.2251   C.3       1 RES1   0.0000
    14 C       29.2281  -0.7983  53.4325   C.3       1 RES1   0.0000
    15 O       28.5010  -2.0137  53.6611   O.3       1 RES1   0.0000
    16 C       27.3237  -2.0831  52.8450   C.3       1 RES1   0.0000
    17 N       27.2409   3.5206  50.5599   N.ar      1 RES1   0.0000
    18 C       26.6201   4.2251  49.5953   C.ar      1 RES1   0.0000
    19 N       25.2996   4.0775  49.3777   N.ar      1 RES1   0.0000
    20 C       24.5638   3.2204  50.1124   C.ar      1 RES1   0.0000
    21 N       23.2675   3.0177  49.7792   N.pl3     1 RES1   0.0000
    22 C       22.7654   3.4606  48.6024   C.ar      1 RES1   0.0000
    23 C       22.0845   2.5708  47.7676   C.ar      1 RES1   0.0000
    24 C       21.5863   2.9962  46.5354   C.ar      1 RES1   0.0000
    25 C       21.7655   4.3186  46.1294   C.ar      1 RES1   0.0000
    26 C       22.4255   5.2170  46.9684   C.ar      1 RES1   0.0000
    27 C       22.9065   4.7949  48.2088   C.ar      1 RES1   0.0000
    28 C       22.6086   6.5842  46.5547   C.1       1 RES1   0.0000
    29 C       22.7619   7.7271  46.2087   C.1       1 RES1   0.0000
    30 H1      21.1117   1.0245  53.7582   H         1 RES1   0.0000
    31 H2      20.7823   0.5576  55.4620   H         1 RES1   0.0000
    32 H3      19.5040   0.3896  54.2191   H         1 RES1   0.0000
    33 H4      22.6894  -0.8928  55.3538   H         1 RES1   0.0000
    34 H5      22.6840  -2.2544  54.1833   H         1 RES1   0.0000
    35 H6      23.4999  -0.9614  52.4751   H         1 RES1   0.0000
    36 H7      22.5561   0.4780  52.9553   H         1 RES1   0.0000
    37 H8      23.3703   1.6913  52.0383   H         1 RES1   0.0000
    38 H9      28.2724   2.1559  52.4876   H         1 RES1   0.0000
    39 H10     29.0010   1.3264  53.8819   H         1 RES1   0.0000
    40 H11     28.8687   0.2432  55.2834   H         1 RES1   0.0000
    41 H12     30.2757  -0.9182  53.7455   H         1 RES1   0.0000
    42 H13     29.2011  -0.5460  52.3614   H         1 RES1   0.0000
    43 H14     26.6469  -1.2463  53.0734   H         1 RES1   0.0000
    44 H15     26.8057  -3.0290  53.0608   H         1 RES1   0.0000
    45 H16     27.5915  -2.0575  51.7780   H         1 RES1   0.0000
    46 H17     27.1895   4.9177  48.9864   H         1 RES1   0.0000
    47 H18     22.6687   2.4493  50.3942   H         1 RES1   0.0000
    48 H19     21.9420   1.5397  48.0720   H         1 RES1   0.0000
    49 H20     21.0611   2.2983  45.8927   H         1 RES1   0.0000
    50 H21     21.3918   4.6473  45.1660   H         1 RES1   0.0000
    51 H22     23.3802   5.5195  48.8610   H         1 RES1   0.0000
    52 H23     22.8962   8.7295  45.9054   H         1 RES1   0.0000
    53 ****    20.7895  -1.2409  53.1670   Du        1 RES1   0.0000
    54 ****    20.5063  -1.6610  54.7194   Du        1 RES1   0.0000
    55 ****    24.9735  -0.5602  54.1989   Du        1 RES1   0.0000
    56 ****    24.1296   0.7348  54.7256   Du        1 RES1   0.0000
    57 ****    26.8862  -0.6076  54.0039   Du        1 RES1   0.0000
    58 ****    26.8192   0.6410  55.0542   Du        1 RES1   0.0000
    59 ****    28.2322  -2.0555  54.6234   Du        1 RES1   0.0000
    60 ****    29.0918  -2.7913  53.4460   Du        1 RES1   0.0000
    61 ****    28.2295   3.6101  50.6814   Du        1 RES1   0.0000
    62 ****    24.8572   4.6132  48.6584   Du        1 RES1   0.0000
@<TRIPOS>BOND
     1     1     2    1
     2     2     3    1
     3     3     4    1
     4     4     5    1
     5     5     6    1
     6     6     7   ar
     7     7     8   ar
     8     8     9   ar
     9     9    10   ar
    10    10    11   ar
    11     6    11   ar
    12    11    12    1
    13    12    13    1
    14    13    14    1
    15    14    15    1
    16    15    16    1
    17     9    17   ar
    18    17    18   ar
    19    18    19   ar
    20    19    20   ar
    21     8    20   ar
    22    20    21    1
    23    21    22    1
    24    22    23   ar
    25    23    24   ar
    26    24    25   ar
    27    25    26   ar
    28    26    27   ar
    29    22    27   ar
    30    26    28    1
    31    28    29    3
    32     1    30    1
    33     1    31    1
    34     1    32    1
    35     3    33    1
    36     3    34    1
    37     4    35    1
    38     4    36    1
    39     7    37    1
    40    10    38    1
    41    13    39    1
    42    13    40    1
    43    14    41    1
    44    14    42    1
    45    16    43    1
    46    16    44    1
    47    16    45    1
    48    18    46    1
    49    21    47    1
    50    23    48    1
    51    24    49    1
    52    25    50    1
    53    27    51    1
    54    29    52    1
    55     2    53    1
    56     2    54    1
    57     5    55    1
    58     5    56    1
    59    12    57    1
    60    12    58    1
    61    15    59    1
    62    15    60    1
    63    17    61    1
    64    19    62    1
@<TRIPOS>SUBSTRUCTURE
     1 RES1        1 GROUP             0 ****  ****    0  
@<TRIPOS>MOLECULE
69.0702
    62    64     1     0     0
SMALL
NO_CHARGES
****
Generated from the CSD

@<TRIPOS>ATOM
     1 C       21.1321  -0.9801  54.7012   C.3       1 RES1   0.0000
     2 O       22.0559  -1.9279  55.2537   O.3       1 RES1   0.0000
     3 C       23.3004  -1.3044  55.6044   C.3       1 RES1   0.0000
     4 C       23.9039  -0.6081  54.3656   C.3       1 RES1   0.0000
     5 O       25.2737  -0.2457  54.5892   O.3       1 RES1   0.0000
     6 C       25.7654   0.6759  53.6688   C.ar      1 RES1   0.0000
     7 C       24.9425   1.1089  52.6280   C.ar      1 RES1   0.0000
     8 C       25.4283   1.9971  51.6649   C.ar      1 RES1   0.0000
     9 C       26.7057   2.5342  51.8299   C.ar      1 RES1   0.0000
    10 C       27.5177   2.1322  52.8909   C.ar      1 RES1   0.0000
    11 C       27.0684   1.1624  53.7916   C.ar      1 RES1   0.0000
    12 O       27.8862   0.6793  54.8172   O.3       1 RES1   0.0000
    13 C       29.3117   0.8279  54.7030   C.3       1 RES1   0.0000
    14 C       29.9035  -0.0789  53.6010   C.3       1 RES1   0.0000
    15 O       29.8821  -1.4512  54.0187   O.3       1 RES1   0.0000
    16 C       29.0062  -2.2365  53.1983   C.3       1 RES1   0.0000
    17 N       27.1671   3.4529  50.9608   N.ar      1 RES1   0.0000
    18 C       26.3975   3.8758  49.9406   C.ar      1 RES1   0.0000
    19 N       25.1754   3.3486  49.7365   N.ar      1 RES1   0.0000
    20 C       24.6900   2.3827  50.5410   C.ar      1 RES1   0.0000
    21 N       23.5094   1.8001  50.2264   N.pl3     1 RES1   0.0000
    22 C       22.3898   2.0432  50.9480   C.ar      1 RES1   0.0000
    23 C       22.3561   3.1376  51.8159   C.ar      1 RES1   0.0000
    24 C       21.2253   3.3897  52.5939   C.ar      1 RES1   0.0000
    25 C       20.1171   2.5469  52.5077   C.ar      1 RES1   0.0000
    26 C       20.1369   1.4652  51.6267   C.ar      1 RES1   0.0000
    27 C       21.2613   1.2254  50.8352   C.ar      1 RES1   0.0000
    28 C       18.9932   0.5953  51.5317   C.1       1 RES1   0.0000
    29 C       18.0370  -0.1319  51.4520   C.1       1 RES1   0.0000
    30 H1      21.5494  -0.5219  53.7921   H         1 RES1   0.0000
    31 H2      20.9018  -0.1945  55.4361   H         1 RES1   0.0000
    32 H3      20.2036  -1.5076  54.4384   H         1 RES1   0.0000
    33 H4      23.1481  -0.5516  56.3930   H         1 RES1   0.0000
    34 H5      24.0069  -2.0686  55.9626   H         1 RES1   0.0000
    35 H6      23.8747  -1.3062  53.5156   H         1 RES1   0.0000
    36 H7      23.3070   0.2792  54.1135   H         1 RES1   0.0000
    37 H8      23.9244   0.7423  52.5890   H         1 RES1   0.0000
    38 H9      28.4923   2.5907  52.9962   H         1 RES1   0.0000
    39 H10     29.6006   1.8739  54.5302   H         1 RES1   0.0000
    40 H11     29.7444   0.5153  55.6654   H         1 RES1   0.0000
    41 H12     30.9354   0.2375  53.3894   H         1 RES1   0.0000
    42 H13     29.2982   0.0407  52.6894   H         1 RES1   0.0000
    43 H14     27.9756  -1.8568  53.2619   H         1 RES1   0.0000
    44 H15     29.0262  -3.2744  53.5618   H         1 RES1   0.0000
    45 H16     29.3398  -2.2184  52.1499   H         1 RES1   0.0000
    46 H17     26.7658   4.6481  49.2753   H         1 RES1   0.0000
    47 H18     23.4394   1.2218  49.3776   H         1 RES1   0.0000
    48 H19     23.2130   3.7977  51.8930   H         1 RES1   0.0000
    49 H20     21.2085   4.2400  53.2668   H         1 RES1   0.0000
    50 H21     19.2431   2.7327  53.1221   H         1 RES1   0.0000
    51 H22     21.2389   0.4035  50.1290   H         1 RES1   0.0000
    52 H23     17.1984  -0.7697  51.3822   H         1 RES1   0.0000
    53 ****    22.2300  -2.6442  54.5780   Du        1 RES1   0.0000
    54 ****    21.6532  -2.3342  56.0740   Du        1 RES1   0.0000
    55 ****    25.8321  -1.0736  54.5363   Du        1 RES1   0.0000
    56 ****    25.3504   0.1501  55.5043   Du        1 RES1   0.0000
    57 ****    27.6999  -0.2993  54.9037   Du        1 RES1   0.0000
    58 ****    27.6095   1.1468  55.6569   Du        1 RES1   0.0000
    59 ****    29.5677  -1.4975  54.9668   Du        1 RES1   0.0000
    60 ****    30.8077  -1.8244  53.9559   Du        1 RES1   0.0000
    61 ****    28.0887   3.8242  51.0741   Du        1 RES1   0.0000
    62 ****    24.6184   3.6796  48.9748   Du        1 RES1   0.0000
@<TRIPOS>BOND
     1     1     2    1
     2     2     3    1
     3     3     4    1
     4     4     5    1
     5     5     6    1
     6     6     7   ar
     7     7     8   ar
     8     8     9   ar
     9     9    10   ar
    10    10    11   ar
    11     6    11   ar
    12    11    12    1
    13    12    13    1
    14    13    14    1
    15    14    15    1
    16    15    16    1
    17     9    17   ar
    18    17    18   ar
    19    18    19   ar
    20    19    20   ar
    21     8    20   ar
    22    20    21    1
    23    21    22    1
    24    22    23   ar
    25    23    24   ar
    26    24    25   ar
    27    25    26   ar
    28    26    27   ar
    29    22    27   ar
    30    26    28    1
    31    28    29    3
    32     1    30    1
    33     1    31    1
    34     1    32    1
    35     3    33    1
    36     3    34    1
    37     4    35    1
    38     4    36    1
    39     7    37    1
    40    10    38    1
    41    13    39    1
    42    13    40    1
    43    14    41    1
    44    14    42    1
    45    16    43    1
    46    16    44    1
    47    16    45    1
    48    18    46    1
    49    21    47    1
    50    23    48    1
    51    24    49    1
    52    25    50    1
    53    27    51    1
    54    29    52    1
    55     2    53    1
    56     2    54    1
    57     5    55    1
    58     5    56    1
    59    12    57    1
    60    12    58    1
    61    15    59    1
    62    15    60    1
    63    17    61    1
    64    19    62    1
@<TRIPOS>SUBSTRUCTURE
     1 RES1        1 GROUP             0 ****  ****    0  
@<TRIPOS>MOLECULE
68.1812
    62    64     1     0     0
SMALL
NO_CHARGES
****
Generated from the CSD

@<TRIPOS>ATOM
     1 C       20.2992   0.3768  53.9765   C.3       1 RES1   0.0000
     2 O       21.0372  -0.3204  54.9894   O.3       1 RES1   0.0000
     3 C       22.2701  -0.8441  54.4735   C.3       1 RES1   0.0000
     4 C       23.0480   0.2723  53.7441   C.3       1 RES1   0.0000
     5 O       24.4211  -0.0938  53.5485   O.3       1 RES1   0.0000
     6 C       25.1433   0.8276  52.7951   C.ar      1 RES1   0.0000
     7 C       24.4851   1.5826  51.8232   C.ar      1 RES1   0.0000
     8 C       25.1966   2.4796  51.0223   C.ar      1 RES1   0.0000
     9 C       26.5490   2.6941  51.2918   C.ar      1 RES1   0.0000
    10 C       27.2022   1.9683  52.2885   C.ar      1 RES1   0.0000
    11 C       26.5121   0.9942  53.0154   C.ar      1 RES1   0.0000
    12 O       27.1555   0.1944  53.9643   O.3       1 RES1   0.0000
    13 C       28.5421   0.4362  54.2573   C.3       1 RES1   0.0000
    14 C       29.4654  -0.6182  53.6070   C.3       1 RES1   0.0000
    15 O       29.0737  -1.9392  54.0065   O.3       1 RES1   0.0000
    16 C       28.5586  -2.6918  52.8997   C.3       1 RES1   0.0000
    17 N       27.2384   3.6116  50.5882   N.ar      1 RES1   0.0000
    18 C       26.6289   4.3420  49.6358   C.ar      1 RES1   0.0000
    19 N       25.3347   4.1310  49.3301   N.ar      1 RES1   0.0000
    20 C       24.6151   3.1830  49.9621   C.ar      1 RES1   0.0000
    21 N       23.3551   2.9264  49.5392   N.pl3     1 RES1   0.0000
    22 C       22.8667   3.4803  48.4043   C.ar      1 RES1   0.0000
    23 C       22.2650   2.6624  47.4445   C.ar      1 RES1   0.0000
    24 C       21.7833   3.2058  46.2528   C.ar      1 RES1   0.0000
    25 C       21.8996   4.5750  46.0131   C.ar      1 RES1   0.0000
    26 C       22.4799   5.3997  46.9773   C.ar      1 RES1   0.0000
    27 C       22.9439   4.8577  48.1769   C.ar      1 RES1   0.0000
    28 C       22.5979   6.8145  46.7355   C.1       1 RES1   0.0000
    29 C       22.6967   7.9972  46.5332   C.1       1 RES1   0.0000
    30 H1      20.0575  -0.2993  53.1429   H         1 RES1   0.0000
    31 H2      20.8787   1.2326  53.5992   H         1 RES1   0.0000
    32 H3      19.3616   0.7459  54.4170   H         1 RES1   0.0000
    33 H4      22.8967  -1.2354  55.2896   H         1 RES1   0.0000
    34 H5      22.0559  -1.6537  53.7591   H         1 RES1   0.0000
    35 H6      22.5973   0.4308  52.7529   H         1 RES1   0.0000
    36 H7      22.9766   1.2070  54.3172   H         1 RES1   0.0000
    37 H8      23.4156   1.4568  51.7094   H         1 RES1   0.0000
    38 H9      28.2453   2.1821  52.4817   H         1 RES1   0.0000
    39 H10     28.8520   1.4476  53.9598   H         1 RES1   0.0000
    40 H11     28.6573   0.3579  55.3489   H         1 RES1   0.0000
    41 H12     30.5047  -0.4227  53.9092   H         1 RES1   0.0000
    42 H13     29.3865  -0.5229  52.5132   H         1 RES1   0.0000
    43 H14     27.6702  -2.1981  52.4783   H         1 RES1   0.0000
    44 H15     28.2730  -3.6907  53.2606   H         1 RES1   0.0000
    45 H16     29.3241  -2.7999  52.1166   H         1 RES1   0.0000
    46 H17     27.1862   5.1076  49.1085   H         1 RES1   0.0000
    47 H18     22.7808   2.2374  50.0446   H         1 RES1   0.0000
    48 H19     22.1718   1.5962  47.6191   H         1 RES1   0.0000
    49 H20     21.3197   2.5634  45.5122   H         1 RES1   0.0000
    50 H21     21.5390   4.9969  45.0815   H         1 RES1   0.0000
    51 H22     23.3542   5.5228  48.9280   H         1 RES1   0.0000
    52 H23     22.7833   9.0345  46.3559   H         1 RES1   0.0000
    53 ****    20.4814  -1.0770  55.3340   Du        1 RES1   0.0000
    54 ****    21.2399   0.3117  55.7373   Du        1 RES1   0.0000
    55 ****    24.4489  -0.9764  53.0792   Du        1 RES1   0.0000
    56 ****    24.8561  -0.1790  54.4449   Du        1 RES1   0.0000
    57 ****    27.0840  -0.7512  53.6469   Du        1 RES1   0.0000
    58 ****    26.6528   0.2968  54.8226   Du        1 RES1   0.0000
    59 ****    28.3660  -1.8697  54.7097   Du        1 RES1   0.0000
    60 ****    29.8697  -2.4150  54.3807   Du        1 RES1   0.0000
    61 ****    28.2109   3.7515  50.7744   Du        1 RES1   0.0000
    62 ****    24.9000   4.6872  48.6219   Du        1 RES1   0.0000
@<TRIPOS>BOND
     1     1     2    1
     2     2     3    1
     3     3     4    1
     4     4     5    1
     5     5     6    1
     6     6     7   ar
     7     7     8   ar
     8     8     9   ar
     9     9    10   ar
    10    10    11   ar
    11     6    11   ar
    12    11    12    1
    13    12    13    1
    14    13    14    1
    15    14    15    1
    16    15    16    1
    17     9    17   ar
    18    17    18   ar
    19    18    19   ar
    20    19    20   ar
    21     8    20   ar
    22    20    21    1
    23    21    22    1
    24    22    23   ar
    25    23    24   ar
    26    24    25   ar
    27    25    26   ar
    28    26    27   ar
    29    22    27   ar
    30    26    28    1
    31    28    29    3
    32     1    30    1
    33     1    31    1
    34     1    32    1
    35     3    33    1
    36     3    34    1
    37     4    35    1
    38     4    36    1
    39     7    37    1
    40    10    38    1
    41    13    39    1
    42    13    40    1
    43    14    41    1
    44    14    42    1
    45    16    43    1
    46    16    44    1
    47    16    45    1
    48    18    46    1
    49    21    47    1
    50    23    48    1
    51    24    49    1
    52    25    50    1
    53    27    51    1
    54    29    52    1
    55     2    53    1
    56     2    54    1
    57     5    55    1
    58     5    56    1
    59    12    57    1
    60    12    58    1
    61    15    59    1
    62    15    60    1
    63    17    61    1
    64    19    62    1
@<TRIPOS>SUBSTRUCTURE
     1 RES1        1 GROUP             0 ****  ****    0  
@<TRIPOS>MOLECULE
68.1176
    62    64     1     0     0
SMALL
NO_CHARGES
****
Generated from the CSD

@<TRIPOS>ATOM
     1 C       27.3733   0.3328  54.6810   C.3       1 RES1   0.0000
     2 O       27.5024   1.7589  54.6021   O.3       1 RES1   0.0000
     3 C       27.9886   2.1714  53.3161   C.3       1 RES1   0.0000
     4 C       26.8796   1.9954  52.2565   C.3       1 RES1   0.0000
     5 O       27.2032   2.6921  51.0451   O.3       1 RES1   0.0000
     6 C       26.0920   3.2042  50.3809   C.ar      1 RES1   0.0000
     7 C       24.8654   2.5479  50.4931   C.ar      1 RES1   0.0000
     8 C       23.7468   3.0154  49.7985   C.ar      1 RES1   0.0000
     9 C       23.8482   4.2135  49.0901   C.ar      1 RES1   0.0000
    10 C       25.0640   4.8931  49.0070   C.ar      1 RES1   0.0000
    11 C       26.2071   4.3654  49.6140   C.ar      1 RES1   0.0000
    12 O       27.4564   4.9785  49.4826   O.3       1 RES1   0.0000
    13 C       27.6232   6.0231  48.5089   C.3       1 RES1   0.0000
    14 C       29.0932   6.1642  48.0549   C.3       1 RES1   0.0000
    15 O       29.3560   7.5071  47.6236   O.3       1 RES1   0.0000
    16 C       28.6895   7.8021  46.3885   C.3       1 RES1   0.0000
    17 N       22.7648   4.7279  48.4788   N.ar      1 RES1   0.0000
    18 C       21.5740   4.1056  48.5606   C.ar      1 RES1   0.0000
    19 N       21.4551   2.9303  49.2066   N.ar      1 RES1   0.0000
    20 C       22.5209   2.3417  49.7841   C.ar      1 RES1   0.0000
    21 N       22.3777   1.1057  50.3173   N.pl3     1 RES1   0.0000
    22 C       21.8060   0.9244  51.5311   C.ar      1 RES1   0.0000
    23 C       20.5912   1.5519  51.8189   C.ar      1 RES1   0.0000
    24 C       19.9988   1.4060  53.0740   C.ar      1 RES1   0.0000
    25 C       20.6190   0.6284  54.0521   C.ar      1 RES1   0.0000
    26 C       21.8211  -0.0180  53.7631   C.ar      1 RES1   0.0000
    27 C       22.4027   0.1132  52.5011   C.ar      1 RES1   0.0000
    28 C       22.4623  -0.8252  54.7687   C.1       1 RES1   0.0000
    29 C       22.9984  -1.4999  55.6095   C.1       1 RES1   0.0000
    30 H1      28.3476  -0.1510  54.5163   H         1 RES1   0.0000
    31 H2      26.6520  -0.0298  53.9335   H         1 RES1   0.0000
    32 H3      27.0114   0.0684  55.6852   H         1 RES1   0.0000
    33 H4      28.2917   3.2294  53.3373   H         1 RES1   0.0000
    34 H5      28.8528   1.5511  53.0330   H         1 RES1   0.0000
    35 H6      26.7848   0.9261  52.0149   H         1 RES1   0.0000
    36 H7      25.9224   2.3514  52.6615   H         1 RES1   0.0000
    37 H8      24.8044   1.6745  51.1303   H         1 RES1   0.0000
    38 H9      25.0941   5.8309  48.4678   H         1 RES1   0.0000
    39 H10     26.9690   5.8780  47.6382   H         1 RES1   0.0000
    40 H11     27.3289   6.9650  48.9960   H         1 RES1   0.0000
    41 H12     29.2867   5.4574  47.2347   H         1 RES1   0.0000
    42 H13     29.7459   5.9135  48.9051   H         1 RES1   0.0000
    43 H14     29.0367   7.1266  45.5925   H         1 RES1   0.0000
    44 H15     28.9256   8.8380  46.1042   H         1 RES1   0.0000
    45 H16     27.5998   7.7027  46.5044   H         1 RES1   0.0000
    46 H17     20.7015   4.5548  48.1004   H         1 RES1   0.0000
    47 H18     22.6361   0.2798  49.7597   H         1 RES1   0.0000
    48 H19     20.1017   2.1610  51.0670   H         1 RES1   0.0000
    49 H20     19.0570   1.8985  53.2898   H         1 RES1   0.0000
    50 H21     20.1676   0.5258  55.0327   H         1 RES1   0.0000
    51 H22     23.3155  -0.4303  52.2860   H         1 RES1   0.0000
    52 H23     23.4685  -2.0916  56.3469   H         1 RES1   0.0000
    53 ****    28.1425   2.0670  55.3059   Du        1 RES1   0.0000
    54 ****    26.6072   2.1757  54.7603   Du        1 RES1   0.0000
    55 ****    27.6731   2.0575  50.4316   Du        1 RES1   0.0000
    56 ****    27.8138   3.4512  51.2708   Du        1 RES1   0.0000
    57 ****    28.1130   4.2592  49.2555   Du        1 RES1   0.0000
    58 ****    27.6857   5.3698  50.3739   Du        1 RES1   0.0000
    59 ****    30.3413   7.6206  47.4964   Du        1 RES1   0.0000
    60 ****    29.0352   8.1426  48.3259   Du        1 RES1   0.0000
    61 ****    22.8453   5.5789  47.9598   Du        1 RES1   0.0000
    62 ****    20.5605   2.4865  49.2588   Du        1 RES1   0.0000
@<TRIPOS>BOND
     1     1     2    1
     2     2     3    1
     3     3     4    1
     4     4     5    1
     5     5     6    1
     6     6     7   ar
     7     7     8   ar
     8     8     9   ar
     9     9    10   ar
    10    10    11   ar
    11     6    11   ar
    12    11    12    1
    13    12    13    1
    14    13    14    1
    15    14    15    1
    16    15    16    1
    17     9    17   ar
    18    17    18   ar
    19    18    19   ar
    20    19    20   ar
    21     8    20   ar
    22    20    21    1
    23    21    22    1
    24    22    23   ar
    25    23    24   ar
    26    24    25   ar
    27    25    26   ar
    28    26    27   ar
    29    22    27   ar
    30    26    28    1
    31    28    29    3
    32     1    30    1
    33     1    31    1
    34     1    32    1
    35     3    33    1
    36     3    34    1
    37     4    35    1
    38     4    36    1
    39     7    37    1
    40    10    38    1
    41    13    39    1
    42    13    40    1
    43    14    41    1
    44    14    42    1
    45    16    43    1
    46    16    44    1
    47    16    45    1
    48    18    46    1
    49    21    47    1
    50    23    48    1
    51    24    49    1
    52    25    50    1
    53    27    51    1
    54    29    52    1
    55     2    53    1
    56     2    54    1
    57     5    55    1
    58     5    56    1
    59    12    57    1
    60    12    58    1
    61    15    59    1
    62    15    60    1
    63    17    61    1
    64    19    62    1
@<TRIPOS>SUBSTRUCTURE
     1 RES1        1 GROUP             0 ****  ****    0  
@<TRIPOS>MOLECULE
67.989
    62    64     1     0     0
SMALL
NO_CHARGES
****
Generated from the CSD

@<TRIPOS>ATOM
     1 C       28.2274   2.1898  53.4711   C.3       1 RES1   0.0000
     2 O       27.8442   2.9354  52.3075   O.3       1 RES1   0.0000
     3 C       26.7490   2.3108  51.6213   C.3       1 RES1   0.0000
     4 C       26.1889   3.2693  50.5484   C.3       1 RES1   0.0000
     5 O       27.1811   3.5793  49.5599   O.3       1 RES1   0.0000
     6 C       27.0337   4.8444  48.9977   C.ar      1 RES1   0.0000
     7 C       25.7725   5.4419  48.9787   C.ar      1 RES1   0.0000
     8 C       25.5902   6.6903  48.3782   C.ar      1 RES1   0.0000
     9 C       26.7088   7.3791  47.9073   C.ar      1 RES1   0.0000
    10 C       27.9775   6.8007  47.9591   C.ar      1 RES1   0.0000
    11 C       28.1401   5.5070  48.4624   C.ar      1 RES1   0.0000
    12 O       29.3834   4.8680  48.4545   O.3       1 RES1   0.0000
    13 C       30.4916   5.5038  47.7952   C.3       1 RES1   0.0000
    14 C       31.7215   4.5737  47.6996   C.3       1 RES1   0.0000
    15 O       31.4455   3.4689  46.8270   O.3       1 RES1   0.0000
    16 C       32.3488   2.3790  47.0574   C.3       1 RES1   0.0000
    17 N       26.5715   8.6174  47.3975   N.ar      1 RES1   0.0000
    18 C       25.3631   9.2090  47.3552   C.ar      1 RES1   0.0000
    19 N       24.2619   8.5541  47.7691   N.ar      1 RES1   0.0000
    20 C       24.3352   7.2906  48.2316   C.ar      1 RES1   0.0000
    21 N       23.1889   6.6322  48.5232   N.pl3     1 RES1   0.0000
    22 C       22.7679   5.5858  47.7742   C.ar      1 RES1   0.0000
    23 C       22.5212   5.7715  46.4115   C.ar      1 RES1   0.0000
    24 C       22.0558   4.7161  45.6260   C.ar      1 RES1   0.0000
    25 C       21.8345   3.4641  46.1998   C.ar      1 RES1   0.0000
    26 C       22.0998   3.2672  47.5553   C.ar      1 RES1   0.0000
    27 C       22.5834   4.3186  48.3356   C.ar      1 RES1   0.0000
    28 C       21.8766   1.9749  48.1505   C.1       1 RES1   0.0000
    29 C       21.6900   0.8946  48.6481   C.1       1 RES1   0.0000
    30 H1      28.5394   1.1728  53.1904   H         1 RES1   0.0000
    31 H2      27.3916   2.1340  54.1843   H         1 RES1   0.0000
    32 H3      29.0744   2.7007  53.9517   H         1 RES1   0.0000
    33 H4      27.0786   1.3834  51.1285   H         1 RES1   0.0000
    34 H5      25.9496   2.0761  52.3409   H         1 RES1   0.0000
    35 H6      25.3467   2.7786  50.0378   H         1 RES1   0.0000
    36 H7      25.8234   4.1875  51.0283   H         1 RES1   0.0000
    37 H8      24.9461   4.9165  49.4408   H         1 RES1   0.0000
    38 H9      28.8217   7.3780  47.6053   H         1 RES1   0.0000
    39 H10     30.2161   5.8729  46.7976   H         1 RES1   0.0000
    40 H11     30.7732   6.3732  48.4083   H         1 RES1   0.0000
    41 H12     31.9764   4.2086  48.7054   H         1 RES1   0.0000
    42 H13     32.5683   5.1556  47.3047   H         1 RES1   0.0000
    43 H14     33.3869   2.6934  46.8727   H         1 RES1   0.0000
    44 H15     32.0950   1.5639  46.3640   H         1 RES1   0.0000
    45 H16     32.2552   2.0117  48.0905   H         1 RES1   0.0000
    46 H17     25.2753  10.2231  46.9829   H         1 RES1   0.0000
    47 H18     22.6649   6.8786  49.3744   H         1 RES1   0.0000
    48 H19     22.6871   6.7413  45.9556   H         1 RES1   0.0000
    49 H20     21.8647   4.8696  44.5696   H         1 RES1   0.0000
    50 H21     21.4590   2.6467  45.5941   H         1 RES1   0.0000
    51 H22     22.8206   4.1320  49.3766   H         1 RES1   0.0000
    52 H23     21.5263  -0.0528  49.0846   H         1 RES1   0.0000
    53 ****    28.6260   2.9939  51.6866   Du        1 RES1   0.0000
    54 ****    27.5707   3.8559  52.5865   Du        1 RES1   0.0000
    55 ****    27.1215   2.8998  48.8286   Du        1 RES1   0.0000
    56 ****    28.0824   3.5279  49.9901   Du        1 RES1   0.0000
    57 ****    29.2528   3.9789  48.0159   Du        1 RES1   0.0000
    58 ****    29.6491   4.7329  49.4091   Du        1 RES1   0.0000
    59 ****    31.5380   3.7727  45.8788   Du        1 RES1   0.0000
    60 ****    30.5097   3.1547  46.9866   Du        1 RES1   0.0000
    61 ****    27.3735   9.1015  47.0475   Du        1 RES1   0.0000
    62 ****    23.3743   9.0133  47.7327   Du        1 RES1   0.0000
@<TRIPOS>BOND
     1     1     2    1
     2     2     3    1
     3     3     4    1
     4     4     5    1
     5     5     6    1
     6     6     7   ar
     7     7     8   ar
     8     8     9   ar
     9     9    10   ar
    10    10    11   ar
    11     6    11   ar
    12    11    12    1
    13    12    13    1
    14    13    14    1
    15    14    15    1
    16    15    16    1
    17     9    17   ar
    18    17    18   ar
    19    18    19   ar
    20    19    20   ar
    21     8    20   ar
    22    20    21    1
    23    21    22    1
    24    22    23   ar
    25    23    24   ar
    26    24    25   ar
    27    25    26   ar
    28    26    27   ar
    29    22    27   ar
    30    26    28    1
    31    28    29    3
    32     1    30    1
    33     1    31    1
    34     1    32    1
    35     3    33    1
    36     3    34    1
    37     4    35    1
    38     4    36    1
    39     7    37    1
    40    10    38    1
    41    13    39    1
    42    13    40    1
    43    14    41    1
    44    14    42    1
    45    16    43    1
    46    16    44    1
    47    16    45    1
    48    18    46    1
    49    21    47    1
    50    23    48    1
    51    24    49    1
    52    25    50    1
    53    27    51    1
    54    29    52    1
    55     2    53    1
    56     2    54    1
    57     5    55    1
    58     5    56    1
    59    12    57    1
    60    12    58    1
    61    15    59    1
    62    15    60    1
    63    17    61    1
    64    19    62    1
@<TRIPOS>SUBSTRUCTURE
     1 RES1        1 GROUP             0 ****  ****    0  
@<TRIPOS>MOLECULE
67.8061
    62    64     1     0     0
SMALL
NO_CHARGES
****
Generated from the CSD

@<TRIPOS>ATOM
     1 C       21.7709  -1.7325  54.6759   C.3       1 RES1   0.0000
     2 O       21.6345  -0.3149  54.8451   O.3       1 RES1   0.0000
     3 C       21.4363   0.3469  53.5869   C.3       1 RES1   0.0000
     4 C       22.7080   0.2168  52.7213   C.3       1 RES1   0.0000
     5 O       23.8690   0.6687  53.4324   O.3       1 RES1   0.0000
     6 C       24.7438   1.4211  52.6535   C.ar      1 RES1   0.0000
     7 C       24.2379   2.1857  51.6011   C.ar      1 RES1   0.0000
     8 C       25.1005   2.9120  50.7760   C.ar      1 RES1   0.0000
     9 C       26.4582   2.9550  51.0956   C.ar      1 RES1   0.0000
    10 C       26.9624   2.2218  52.1703   C.ar      1 RES1   0.0000
    11 C       26.1128   1.4109  52.9281   C.ar      1 RES1   0.0000
    12 O       26.5985   0.6024  53.9598   O.3       1 RES1   0.0000
    13 C       27.9173   0.8470  54.4774   C.3       1 RES1   0.0000
    14 C       28.9440  -0.1863  53.9625   C.3       1 RES1   0.0000
    15 O       28.4268  -1.5171  54.1034   O.3       1 RES1   0.0000
    16 C       29.0666  -2.4280  53.1990   C.3       1 RES1   0.0000
    17 N       27.2981   3.7118  50.3649   N.ar      1 RES1   0.0000
    18 C       26.8362   4.4469  49.3361   C.ar      1 RES1   0.0000
    19 N       25.5378   4.3964  48.9831   N.ar      1 RES1   0.0000
    20 C       24.6665   3.6083  49.6430   C.ar      1 RES1   0.0000
    21 N       23.3999   3.4993  49.1780   N.pl3     1 RES1   0.0000
    22 C       22.9464   4.2911  48.1777   C.ar      1 RES1   0.0000
    23 C       23.2221   5.6605  48.2068   C.ar      1 RES1   0.0000
    24 C       22.7380   6.5017  47.2041   C.ar      1 RES1   0.0000
    25 C       21.9736   5.9769  46.1619   C.ar      1 RES1   0.0000
    26 C       21.7135   4.6069  46.1160   C.ar      1 RES1   0.0000
    27 C       22.2145   3.7639  47.1093   C.ar      1 RES1   0.0000
    28 C       20.9284   4.0606  45.0394   C.1       1 RES1   0.0000
    29 C       20.2719   3.6040  44.1394   C.1       1 RES1   0.0000
    30 H1      22.6339  -1.9616  54.0331   H         1 RES1   0.0000
    31 H2      20.8583  -2.1560  54.2305   H         1 RES1   0.0000
    32 H3      21.9327  -2.1896  55.6629   H         1 RES1   0.0000
    33 H4      20.5913  -0.1012  53.0421   H         1 RES1   0.0000
    34 H5      21.2318   1.4145  53.7607   H         1 RES1   0.0000
    35 H6      22.8594  -0.8434  52.4685   H         1 RES1   0.0000
    36 H7      22.5808   0.7862  51.7904   H         1 RES1   0.0000
    37 H8      23.1666   2.2024  51.4445   H         1 RES1   0.0000
    38 H9      28.0172   2.3016  52.3988   H         1 RES1   0.0000
    39 H10     28.2606   1.8668  54.2550   H         1 RES1   0.0000
    40 H11     27.8561   0.7451  55.5714   H         1 RES1   0.0000
    41 H12     29.8790  -0.0802  54.5319   H         1 RES1   0.0000
    42 H13     29.1457   0.0225  52.9007   H         1 RES1   0.0000
    43 H14     28.8984  -2.1178  52.1569   H         1 RES1   0.0000
    44 H15     28.6330  -3.4278  53.3472   H         1 RES1   0.0000
    45 H16     30.1478  -2.4741  53.3981   H         1 RES1   0.0000
    46 H17     27.5169   5.0854  48.7851   H         1 RES1   0.0000
    47 H18     22.7912   2.7498  49.5353   H         1 RES1   0.0000
    48 H19     23.8129   6.0797  49.0138   H         1 RES1   0.0000
    49 H20     22.9546   7.5638  47.2357   H         1 RES1   0.0000
    50 H21     21.5843   6.6311  45.3897   H         1 RES1   0.0000
    51 H22     22.0340   2.6980  47.0316   H         1 RES1   0.0000
    52 H23     19.6962   3.2035  43.3500   H         1 RES1   0.0000
    53 ****    22.4642   0.0428  55.2736   Du        1 RES1   0.0000
    54 ****    20.8488  -0.1321  55.4361   Du        1 RES1   0.0000
    55 ****    24.3604  -0.1317  53.7757   Du        1 RES1   0.0000
    56 ****    23.5685   1.2311  54.2027   Du        1 RES1   0.0000
    57 ****    26.5858  -0.3395  53.6242   Du        1 RES1   0.0000
    58 ****    25.9621   0.6918  54.7260   Du        1 RES1   0.0000
    59 ****    27.4451  -1.5060  53.9132   Du        1 RES1   0.0000
    60 ****    28.5811  -1.8281  55.0412   Du        1 RES1   0.0000
    61 ****    28.2728   3.7281  50.5881   Du        1 RES1   0.0000
    62 ****    25.2146   4.9533  48.2180   Du        1 RES1   0.0000
@<TRIPOS>BOND
     1     1     2    1
     2     2     3    1
     3     3     4    1
     4     4     5    1
     5     5     6    1
     6     6     7   ar
     7     7     8   ar
     8     8     9   ar
     9     9    10   ar
    10    10    11   ar
    11     6    11   ar
    12    11    12    1
    13    12    13    1
    14    13    14    1
    15    14    15    1
    16    15    16    1
    17     9    17   ar
    18    17    18   ar
    19    18    19   ar
    20    19    20   ar
    21     8    20   ar
    22    20    21    1
    23    21    22    1
    24    22    23   ar
    25    23    24   ar
    26    24    25   ar
    27    25    26   ar
    28    26    27   ar
    29    22    27   ar
    30    26    28    1
    31    28    29    3
    32     1    30    1
    33     1    31    1
    34     1    32    1
    35     3    33    1
    36     3    34    1
    37     4    35    1
    38     4    36    1
    39     7    37    1
    40    10    38    1
    41    13    39    1
    42    13    40    1
    43    14    41    1
    44    14    42    1
    45    16    43    1
    46    16    44    1
    47    16    45    1
    48    18    46    1
    49    21    47    1
    50    23    48    1
    51    24    49    1
    52    25    50    1
    53    27    51    1
    54    29    52    1
    55     2    53    1
    56     2    54    1
    57     5    55    1
    58     5    56    1
    59    12    57    1
    60    12    58    1
    61    15    59    1
    62    15    60    1
    63    17    61    1
    64    19    62    1
@<TRIPOS>SUBSTRUCTURE
     1 RES1        1 GROUP             0 ****  ****    0  
@<TRIPOS>MOLECULE
67.5586
    62    64     1     0     0
SMALL
NO_CHARGES
****
Generated from the CSD

@<TRIPOS>ATOM
     1 C       31.0340   5.4646  47.8433   C.3       1 RES1   0.0000
     2 O       29.8700   5.1139  48.6042   O.3       1 RES1   0.0000
     3 C       28.7069   5.8128  48.1359   C.3       1 RES1   0.0000
     4 C       27.4386   4.9953  48.4626   C.3       1 RES1   0.0000
     5 O       27.4712   4.5016  49.8090   O.3       1 RES1   0.0000
     6 C       26.3707   3.7174  50.1435   C.ar      1 RES1   0.0000
     7 C       25.2171   3.7877  49.3610   C.ar      1 RES1   0.0000
     8 C       24.0836   3.0461  49.7035   C.ar      1 RES1   0.0000
     9 C       24.1655   2.1465  50.7672   C.ar      1 RES1   0.0000
    10 C       25.3302   2.0456  51.5289   C.ar      1 RES1   0.0000
    11 C       26.4258   2.8673  51.2499   C.ar      1 RES1   0.0000
    12 O       27.5771   2.8484  52.0425   O.3       1 RES1   0.0000
    13 C       27.6088   2.0084  53.2089   C.3       1 RES1   0.0000
    14 C       28.8381   2.2972  54.0991   C.3       1 RES1   0.0000
    15 O       29.0991   1.1845  54.9663   O.3       1 RES1   0.0000
    16 C       29.5819   0.0497  54.2341   C.3       1 RES1   0.0000
    17 N       23.1139   1.3616  51.0676   N.ar      1 RES1   0.0000
    18 C       21.9853   1.4216  50.3363   C.ar      1 RES1   0.0000
    19 N       21.8657   2.3054  49.3275   N.ar      1 RES1   0.0000
    20 C       22.8658   3.1559  49.0240   C.ar      1 RES1   0.0000
    21 N       22.6553   4.1051  48.0821   N.pl3     1 RES1   0.0000
    22 C       21.7172   3.9456  47.1190   C.ar      1 RES1   0.0000
    23 C       22.0858   4.0564  45.7758   C.ar      1 RES1   0.0000
    24 C       21.1306   3.9280  44.7665   C.ar      1 RES1   0.0000
    25 C       19.7967   3.6860  45.0951   C.ar      1 RES1   0.0000
    26 C       19.4267   3.5528  46.4337   C.ar      1 RES1   0.0000
    27 C       20.3864   3.6624  47.4412   C.ar      1 RES1   0.0000
    28 C       18.0513   3.2987  46.7768   C.1       1 RES1   0.0000
    29 C       16.9015   3.0864  47.0637   C.1       1 RES1   0.0000
    30 H1      31.2332   6.5438  47.9210   H         1 RES1   0.0000
    31 H2      30.8989   5.1911  46.7862   H         1 RES1   0.0000
    32 H3      31.8962   4.9147  48.2477   H         1 RES1   0.0000
    33 H4      28.6259   6.7982  48.6197   H         1 RES1   0.0000
    34 H5      28.7724   5.9472  47.0453   H         1 RES1   0.0000
    35 H6      26.5589   5.6491  48.3650   H         1 RES1   0.0000
    36 H7      27.3411   4.1647  47.7501   H         1 RES1   0.0000
    37 H8      25.2257   4.4262  48.4864   H         1 RES1   0.0000
    38 H9      25.3604   1.3186  52.3300   H         1 RES1   0.0000
    39 H10     26.6851   2.0925  53.7979   H         1 RES1   0.0000
    40 H11     27.6864   0.9697  52.8536   H         1 RES1   0.0000
    41 H12     28.6488   3.2042  54.6919   H         1 RES1   0.0000
    42 H13     29.7075   2.4707  53.4467   H         1 RES1   0.0000
    43 H14     28.8359  -0.2771  53.4944   H         1 RES1   0.0000
    44 H15     29.7629  -0.7711  54.9435   H         1 RES1   0.0000
    45 H16     30.5244   0.2935  53.7214   H         1 RES1   0.0000
    46 H17     21.1635   0.7522  50.5626   H         1 RES1   0.0000
    47 H18     23.1616   4.9995  48.1414   H         1 RES1   0.0000
    48 H19     23.1194   4.2472  45.5091   H         1 RES1   0.0000
    49 H20     21.4250   4.0177  43.7267   H         1 RES1   0.0000
    50 H21     19.0506   3.6004  44.3128   H         1 RES1   0.0000
    51 H22     20.0833   3.5154  48.4714   H         1 RES1   0.0000
    52 H23     15.8931   2.9002  47.3153   H         1 RES1   0.0000
    53 ****    30.0259   5.3484  49.5637   Du        1 RES1   0.0000
    54 ****    29.7127   4.1297  48.5229   Du        1 RES1   0.0000
    55 ****    27.5027   5.2836  50.4315   Du        1 RES1   0.0000
    56 ****    28.2980   3.9509  49.9236   Du        1 RES1   0.0000
    57 ****    27.7343   3.7860  52.3528   Du        1 RES1   0.0000
    58 ****    28.3328   2.5609  51.4541   Du        1 RES1   0.0000
    59 ****    28.2527   0.9325  55.4354   Du        1 RES1   0.0000
    60 ****    29.7870   1.4526  55.6409   Du        1 RES1   0.0000
    61 ****    23.1715   0.7290  51.8399   Du        1 RES1   0.0000
    62 ****    21.0200   2.3310  48.7944   Du        1 RES1   0.0000
@<TRIPOS>BOND
     1     1     2    1
     2     2     3    1
     3     3     4    1
     4     4     5    1
     5     5     6    1
     6     6     7   ar
     7     7     8   ar
     8     8     9   ar
     9     9    10   ar
    10    10    11   ar
    11     6    11   ar
    12    11    12    1
    13    12    13    1
    14    13    14    1
    15    14    15    1
    16    15    16    1
    17     9    17   ar
    18    17    18   ar
    19    18    19   ar
    20    19    20   ar
    21     8    20   ar
    22    20    21    1
    23    21    22    1
    24    22    23   ar
    25    23    24   ar
    26    24    25   ar
    27    25    26   ar
    28    26    27   ar
    29    22    27   ar
    30    26    28    1
    31    28    29    3
    32     1    30    1
    33     1    31    1
    34     1    32    1
    35     3    33    1
    36     3    34    1
    37     4    35    1
    38     4    36    1
    39     7    37    1
    40    10    38    1
    41    13    39    1
    42    13    40    1
    43    14    41    1
    44    14    42    1
    45    16    43    1
    46    16    44    1
    47    16    45    1
    48    18    46    1
    49    21    47    1
    50    23    48    1
    51    24    49    1
    52    25    50    1
    53    27    51    1
    54    29    52    1
    55     2    53    1
    56     2    54    1
    57     5    55    1
    58     5    56    1
    59    12    57    1
    60    12    58    1
    61    15    59    1
    62    15    60    1
    63    17    61    1
    64    19    62    1
@<TRIPOS>SUBSTRUCTURE
     1 RES1        1 GROUP             0 ****  ****    0  
@<TRIPOS>MOLECULE
67.4129
    62    64     1     0     0
SMALL
NO_CHARGES
****
Generated from the CSD

@<TRIPOS>ATOM
     1 C       28.8769   2.0657  54.0996   C.3       1 RES1   0.0000
     2 O       27.8107   2.6983  53.3788   O.3       1 RES1   0.0000
     3 C       26.8686   1.7352  52.8834   C.3       1 RES1   0.0000
     4 C       26.5048   2.0643  51.4195   C.3       1 RES1   0.0000
     5 O       26.3533   3.4777  51.2270   O.3       1 RES1   0.0000
     6 C       25.3537   3.8140  50.3182   C.ar      1 RES1   0.0000
     7 C       24.2468   2.9756  50.1773   C.ar      1 RES1   0.0000
     8 C       23.2537   3.2668  49.2386   C.ar      1 RES1   0.0000
     9 C       23.3280   4.4685  48.5329   C.ar      1 RES1   0.0000
    10 C       24.4145   5.3280  48.6988   C.ar      1 RES1   0.0000
    11 C       25.4598   4.9814  49.5595   C.ar      1 RES1   0.0000
    12 O       26.5995   5.7806  49.6879   O.3       1 RES1   0.0000
    13 C       27.0159   6.5880  48.5735   C.3       1 RES1   0.0000
    14 C       28.5471   6.5517  48.3704   C.3       1 RES1   0.0000
    15 O       29.0075   5.1956  48.2855   O.3       1 RES1   0.0000
    16 C       30.3877   5.1324  47.9007   C.3       1 RES1   0.0000
    17 N       22.3431   4.8112  47.6816   N.ar      1 RES1   0.0000
    18 C       21.2722   4.0121  47.5180   C.ar      1 RES1   0.0000
    19 N       21.1917   2.8304  48.1585   N.ar      1 RES1   0.0000
    20 C       22.1784   2.4118  48.9751   C.ar      1 RES1   0.0000
    21 N       22.1086   1.1669  49.5021   N.pl3     1 RES1   0.0000
    22 C       21.1695   0.8434  50.4223   C.ar      1 RES1   0.0000
    23 C       19.8186   1.0358  50.1220   C.ar      1 RES1   0.0000
    24 C       18.8344   0.7400  51.0662   C.ar      1 RES1   0.0000
    25 C       19.1961   0.2474  52.3201   C.ar      1 RES1   0.0000
    26 C       20.5422   0.0328  52.6176   C.ar      1 RES1   0.0000
    27 C       21.5242   0.3109  51.6655   C.ar      1 RES1   0.0000
    28 C       20.9193  -0.4798  53.9095   C.1       1 RES1   0.0000
    29 C       21.2346  -0.9081  54.9896   C.1       1 RES1   0.0000
    30 H1      29.4197   1.3657  53.4471   H         1 RES1   0.0000
    31 H2      28.4825   1.5240  54.9723   H         1 RES1   0.0000
    32 H3      29.5750   2.8417  54.4458   H         1 RES1   0.0000
    33 H4      27.2947   0.7210  52.9215   H         1 RES1   0.0000
    34 H5      25.9530   1.7682  53.4936   H         1 RES1   0.0000
    35 H6      27.3195   1.7207  50.7645   H         1 RES1   0.0000
    36 H7      25.5823   1.5366  51.1408   H         1 RES1   0.0000
    37 H8      24.1782   2.1013  50.8125   H         1 RES1   0.0000
    38 H9      24.4218   6.2609  48.1504   H         1 RES1   0.0000
    39 H10     26.5027   6.2994  47.6458   H         1 RES1   0.0000
    40 H11     26.7311   7.6254  48.8054   H         1 RES1   0.0000
    41 H12     29.0346   7.0661  49.2115   H         1 RES1   0.0000
    42 H13     28.7873   7.0839  47.4373   H         1 RES1   0.0000
    43 H14     30.5332   5.5923  46.9119   H         1 RES1   0.0000
    44 H15     30.6867   4.0753  47.8491   H         1 RES1   0.0000
    45 H16     31.0188   5.6468  48.6409   H         1 RES1   0.0000
    46 H17     20.4666   4.3225  46.8627   H         1 RES1   0.0000
    47 H18     22.7293   0.4284  49.1426   H         1 RES1   0.0000
    48 H19     19.5263   1.4209  49.1514   H         1 RES1   0.0000
    49 H20     17.7883   0.8946  50.8257   H         1 RES1   0.0000
    50 H21     18.4336   0.0308  53.0602   H         1 RES1   0.0000
    51 H22     22.5599   0.0985  51.9041   H         1 RES1   0.0000
    52 H23     21.5111  -1.2838  55.9369   H         1 RES1   0.0000
    53 ****    28.1953   3.2039  52.6065   Du        1 RES1   0.0000
    54 ****    27.3366   3.3325  53.9895   Du        1 RES1   0.0000
    55 ****    27.2209   3.8457  50.8927   Du        1 RES1   0.0000
    56 ****    26.1319   3.8946  52.1085   Du        1 RES1   0.0000
    57 ****    27.3610   5.1712  49.9086   Du        1 RES1   0.0000
    58 ****    26.4366   6.4016  50.4546   Du        1 RES1   0.0000
    59 ****    28.4583   4.7078  47.6069   Du        1 RES1   0.0000
    60 ****    28.8988   4.7589  49.1785   Du        1 RES1   0.0000
    61 ****    22.4075   5.6660  47.1667   Du        1 RES1   0.0000
    62 ****    20.3857   2.2536  48.0258   Du        1 RES1   0.0000
@<TRIPOS>BOND
     1     1     2    1
     2     2     3    1
     3     3     4    1
     4     4     5    1
     5     5     6    1
     6     6     7   ar
     7     7     8   ar
     8     8     9   ar
     9     9    10   ar
    10    10    11   ar
    11     6    11   ar
    12    11    12    1
    13    12    13    1
    14    13    14    1
    15    14    15    1
    16    15    16    1
    17     9    17   ar
    18    17    18   ar
    19    18    19   ar
    20    19    20   ar
    21     8    20   ar
    22    20    21    1
    23    21    22    1
    24    22    23   ar
    25    23    24   ar
    26    24    25   ar
    27    25    26   ar
    28    26    27   ar
    29    22    27   ar
    30    26    28    1
    31    28    29    3
    32     1    30    1
    33     1    31    1
    34     1    32    1
    35     3    33    1
    36     3    34    1
    37     4    35    1
    38     4    36    1
    39     7    37    1
    40    10    38    1
    41    13    39    1
    42    13    40    1
    43    14    41    1
    44    14    42    1
    45    16    43    1
    46    16    44    1
    47    16    45    1
    48    18    46    1
    49    21    47    1
    50    23    48    1
    51    24    49    1
    52    25    50    1
    53    27    51    1
    54    29    52    1
    55     2    53    1
    56     2    54    1
    57     5    55    1
    58     5    56    1
    59    12    57    1
    60    12    58    1
    61    15    59    1
    62    15    60    1
    63    17    61    1
    64    19    62    1
@<TRIPOS>SUBSTRUCTURE
     1 RES1        1 GROUP             0 ****  ****    0  
@<TRIPOS>MOLECULE
66.5427
    62    64     1     0     0
SMALL
NO_CHARGES
****
Generated from the CSD

@<TRIPOS>ATOM
     1 C       29.0552  -1.9803  53.2037   C.3       1 RES1   0.0000
     2 O       28.4811  -1.0637  54.1456   O.3       1 RES1   0.0000
     3 C       28.9501   0.2753  53.9273   C.3       1 RES1   0.0000
     4 C       28.0044   1.0081  52.9514   C.3       1 RES1   0.0000
     5 O       26.6479   0.9710  53.4161   O.3       1 RES1   0.0000
     6 C       25.7310   1.4901  52.5062   C.ar      1 RES1   0.0000
     7 C       26.1331   2.4994  51.6301   C.ar      1 RES1   0.0000
     8 C       25.2190   3.0692  50.7401   C.ar      1 RES1   0.0000
     9 C       23.9342   2.5303  50.6599   C.ar      1 RES1   0.0000
    10 C       23.5399   1.4952  51.5083   C.ar      1 RES1   0.0000
    11 C       24.4238   1.0004  52.4714   C.ar      1 RES1   0.0000
    12 O       24.0348   0.0204  53.3891   O.3       1 RES1   0.0000
    13 C       22.6604  -0.0392  53.8072   C.3       1 RES1   0.0000
    14 C       22.4923  -0.7972  55.1429   C.3       1 RES1   0.0000
    15 O       21.7647  -2.0164  54.9372   O.3       1 RES1   0.0000
    16 C       20.5662  -1.7919  54.1821   C.3       1 RES1   0.0000
    17 N       23.0594   3.0074  49.7547   N.ar      1 RES1   0.0000
    18 C       23.4193   3.9904  48.9085   C.ar      1 RES1   0.0000
    19 N       24.6399   4.5534  48.9876   N.ar      1 RES1   0.0000
    20 C       25.5323   4.1547  49.9153   C.ar      1 RES1   0.0000
    21 N       26.6995   4.8298  50.0340   N.pl3     1 RES1   0.0000
    22 C       27.1472   5.6414  49.0470   C.ar      1 RES1   0.0000
    23 C       28.4316   5.4513  48.5309   C.ar      1 RES1   0.0000
    24 C       28.9270   6.2952  47.5360   C.ar      1 RES1   0.0000
    25 C       28.1380   7.3372  47.0485   C.ar      1 RES1   0.0000
    26 C       26.8467   7.5184  47.5447   C.ar      1 RES1   0.0000
    27 C       26.3456   6.6617  48.5261   C.ar      1 RES1   0.0000
    28 C       26.0275   8.5903  47.0409   C.1       1 RES1   0.0000
    29 C       25.3426   9.4865  46.6199   C.1       1 RES1   0.0000
    30 H1      30.1517  -1.9867  53.2931   H         1 RES1   0.0000
    31 H2      28.7718  -1.7041  52.1771   H         1 RES1   0.0000
    32 H3      28.6758  -2.9894  53.4205   H         1 RES1   0.0000
    33 H4      28.9814   0.8344  54.8749   H         1 RES1   0.0000
    34 H5      29.9595   0.2450  53.4893   H         1 RES1   0.0000
    35 H6      28.3091   2.0634  52.8857   H         1 RES1   0.0000
    36 H7      28.0820   0.5562  51.9530   H         1 RES1   0.0000
    37 H8      27.1656   2.8245  51.6572   H         1 RES1   0.0000
    38 H9      22.5427   1.0897  51.3973   H         1 RES1   0.0000
    39 H10     22.2117   0.9612  53.8789   H         1 RES1   0.0000
    40 H11     22.1137  -0.5970  53.0319   H         1 RES1   0.0000
    41 H12     21.9597  -0.1533  55.8582   H         1 RES1   0.0000
    42 H13     23.4924  -1.0251  55.5422   H         1 RES1   0.0000
    43 H14     19.9001  -1.0966  54.7144   H         1 RES1   0.0000
    44 H15     20.0488  -2.7542  54.0560   H         1 RES1   0.0000
    45 H16     20.8063  -1.3823  53.1894   H         1 RES1   0.0000
    46 H17     22.7187   4.3335  48.1561   H         1 RES1   0.0000
    47 H18     27.2211   4.7891  50.9207   H         1 RES1   0.0000
    48 H19     29.0546   4.6461  48.9045   H         1 RES1   0.0000
    49 H20     29.9259   6.1420  47.1427   H         1 RES1   0.0000
    50 H21     28.5266   8.0030  46.2858   H         1 RES1   0.0000
    51 H22     25.3258   6.7964  48.8677   H         1 RES1   0.0000
    52 H23     24.7419  10.2724  46.2507   H         1 RES1   0.0000
    53 ****    28.7312  -1.3490  55.0709   Du        1 RES1   0.0000
    54 ****    27.4859  -1.0794  54.0496   Du        1 RES1   0.0000
    55 ****    26.5890   1.5018  54.2616   Du        1 RES1   0.0000
    56 ****    26.4038   0.0193  53.6024   Du        1 RES1   0.0000
    57 ****    24.5856   0.1555  54.2127   Du        1 RES1   0.0000
    58 ****    24.2556  -0.8659  52.9820   Du        1 RES1   0.0000
    59 ****    21.5208  -2.4033  55.8265   Du        1 RES1   0.0000
    60 ****    22.3455  -2.6616  54.4409   Du        1 RES1   0.0000
    61 ****    22.1350   2.6285  49.7106   Du        1 RES1   0.0000
    62 ****    24.8885   5.2798  48.3469   Du        1 RES1   0.0000
@<TRIPOS>BOND
     1     1     2    1
     2     2     3    1
     3     3     4    1
     4     4     5    1
     5     5     6    1
     6     6     7   ar
     7     7     8   ar
     8     8     9   ar
     9     9    10   ar
    10    10    11   ar
    11     6    11   ar
    12    11    12    1
    13    12    13    1
    14    13    14    1
    15    14    15    1
    16    15    16    1
    17     9    17   ar
    18    17    18   ar
    19    18    19   ar
    20    19    20   ar
    21     8    20   ar
    22    20    21    1
    23    21    22    1
    24    22    23   ar
    25    23    24   ar
    26    24    25   ar
    27    25    26   ar
    28    26    27   ar
    29    22    27   ar
    30    26    28    1
    31    28    29    3
    32     1    30    1
    33     1    31    1
    34     1    32    1
    35     3    33    1
    36     3    34    1
    37     4    35    1
    38     4    36    1
    39     7    37    1
    40    10    38    1
    41    13    39    1
    42    13    40    1
    43    14    41    1
    44    14    42    1
    45    16    43    1
    46    16    44    1
    47    16    45    1
    48    18    46    1
    49    21    47    1
    50    23    48    1
    51    24    49    1
    52    25    50    1
    53    27    51    1
    54    29    52    1
    55     2    53    1
    56     2    54    1
    57     5    55    1
    58     5    56    1
    59    12    57    1
    60    12    58    1
    61    15    59    1
    62    15    60    1
    63    17    61    1
    64    19    62    1
@<TRIPOS>SUBSTRUCTURE
     1 RES1        1 GROUP             0 ****  ****    0  
@<TRIPOS>MOLECULE
66.3041
    62    64     1     0     0
SMALL
NO_CHARGES
****
Generated from the CSD

@<TRIPOS>ATOM
     1 C       29.2301   0.2264  54.2773   C.3       1 RES1   0.0000
     2 O       28.7527   1.4686  54.8119   O.3       1 RES1   0.0000
     3 C       28.6992   2.4880  53.8028   C.3       1 RES1   0.0000
     4 C       27.3804   2.3694  53.0088   C.3       1 RES1   0.0000
     5 O       27.5259   2.8880  51.6794   O.3       1 RES1   0.0000
     6 C       26.3171   3.0558  51.0095   C.ar      1 RES1   0.0000
     7 C       25.2371   2.2319  51.3301   C.ar      1 RES1   0.0000
     8 C       24.0283   2.3494  50.6394   C.ar      1 RES1   0.0000
     9 C       23.8826   3.3809  49.7108   C.ar      1 RES1   0.0000
    10 C       24.9486   4.2310  49.4148   C.ar      1 RES1   0.0000
    11 C       26.1896   4.0423  50.0296   C.ar      1 RES1   0.0000
    12 O       27.2992   4.8246  49.6967   O.3       1 RES1   0.0000
    13 C       27.2955   5.5506  48.4557   C.3       1 RES1   0.0000
    14 C       28.3983   6.6316  48.4121   C.3       1 RES1   0.0000
    15 O       29.3889   6.2952  47.4304   O.3       1 RES1   0.0000
    16 C       30.1188   5.1180  47.8025   C.3       1 RES1   0.0000
    17 N       22.7024   3.5662  49.0902   N.ar      1 RES1   0.0000
    18 C       21.6503   2.7754  49.3721   C.ar      1 RES1   0.0000
    19 N       21.7725   1.7504  50.2367   N.ar      1 RES1   0.0000
    20 C       22.9479   1.4836  50.8394   C.ar      1 RES1   0.0000
    21 N       23.0534   0.3734  51.6066   N.pl3     1 RES1   0.0000
    22 C       22.1598   0.1086  52.5888   C.ar      1 RES1   0.0000
    23 C       22.6047  -0.0126  53.9078   C.ar      1 RES1   0.0000
    24 C       21.7075  -0.3170  54.9324   C.ar      1 RES1   0.0000
    25 C       20.3553  -0.5016  54.6437   C.ar      1 RES1   0.0000
    26 C       19.9019  -0.3604  53.3318   C.ar      1 RES1   0.0000
    27 C       20.7973  -0.0370  52.3110   C.ar      1 RES1   0.0000
    28 C       18.5060  -0.5459  53.0304   C.1       1 RES1   0.0000
    29 C       17.3390  -0.7011  52.7783   C.1       1 RES1   0.0000
    30 H1      30.2431   0.3491  53.8658   H         1 RES1   0.0000
    31 H2      28.5548  -0.1375  53.4887   H         1 RES1   0.0000
    32 H3      29.2645  -0.5147  55.0891   H         1 RES1   0.0000
    33 H4      28.7473   3.4884  54.2595   H         1 RES1   0.0000
    34 H5      29.5447   2.3639  53.1089   H         1 RES1   0.0000
    35 H6      27.1083   1.3064  52.9277   H         1 RES1   0.0000
    36 H7      26.5792   2.8984  53.5430   H         1 RES1   0.0000
    37 H8      25.3602   1.5064  52.1246   H         1 RES1   0.0000
    38 H9      24.7867   5.0329  48.7064   H         1 RES1   0.0000
    39 H10     27.3865   4.8799  47.5900   H         1 RES1   0.0000
    40 H11     26.3220   6.0589  48.3848   H         1 RES1   0.0000
    41 H12     28.8618   6.7141  49.4062   H         1 RES1   0.0000
    42 H13     27.9321   7.5946  48.1534   H         1 RES1   0.0000
    43 H14     30.6417   5.2749  48.7578   H         1 RES1   0.0000
    44 H15     30.8626   4.9076  47.0201   H         1 RES1   0.0000
    45 H16     29.4411   4.2558  47.8927   H         1 RES1   0.0000
    46 H17     20.6946   2.9648  48.8972   H         1 RES1   0.0000
    47 H18     23.7796  -0.3242  51.3922   H         1 RES1   0.0000
    48 H19     23.6541   0.1261  54.1431   H         1 RES1   0.0000
    49 H20     22.0616  -0.4116  55.9530   H         1 RES1   0.0000
    50 H21     19.6590  -0.7525  55.4363   H         1 RES1   0.0000
    51 H22     20.4164   0.1073  51.3066   H         1 RES1   0.0000
    52 H23     16.3155  -0.8371  52.5572   H         1 RES1   0.0000
    53 ****    29.3675   1.7660  55.5424   Du        1 RES1   0.0000
    54 ****    27.8348   1.3310  55.1842   Du        1 RES1   0.0000
    55 ****    28.0931   2.2543  51.1534   Du        1 RES1   0.0000
    56 ****    27.9821   3.7762  51.7349   Du        1 RES1   0.0000
    57 ****    28.0917   4.2151  49.6768   Du        1 RES1   0.0000
    58 ****    27.4138   5.4965  50.4284   Du        1 RES1   0.0000
    59 ****    30.0283   7.0586  47.3390   Du        1 RES1   0.0000
    60 ****    28.9358   6.1330  46.5538   Du        1 RES1   0.0000
    61 ****    22.6067   4.2972  48.4145   Du        1 RES1   0.0000
    62 ****    20.9774   1.1772  50.4349   Du        1 RES1   0.0000
@<TRIPOS>BOND
     1     1     2    1
     2     2     3    1
     3     3     4    1
     4     4     5    1
     5     5     6    1
     6     6     7   ar
     7     7     8   ar
     8     8     9   ar
     9     9    10   ar
    10    10    11   ar
    11     6    11   ar
    12    11    12    1
    13    12    13    1
    14    13    14    1
    15    14    15    1
    16    15    16    1
    17     9    17   ar
    18    17    18   ar
    19    18    19   ar
    20    19    20   ar
    21     8    20   ar
    22    20    21    1
    23    21    22    1
    24    22    23   ar
    25    23    24   ar
    26    24    25   ar
    27    25    26   ar
    28    26    27   ar
    29    22    27   ar
    30    26    28    1
    31    28    29    3
    32     1    30    1
    33     1    31    1
    34     1    32    1
    35     3    33    1
    36     3    34    1
    37     4    35    1
    38     4    36    1
    39     7    37    1
    40    10    38    1
    41    13    39    1
    42    13    40    1
    43    14    41    1
    44    14    42    1
    45    16    43    1
    46    16    44    1
    47    16    45    1
    48    18    46    1
    49    21    47    1
    50    23    48    1
    51    24    49    1
    52    25    50    1
    53    27    51    1
    54    29    52    1
    55     2    53    1
    56     2    54    1
    57     5    55    1
    58     5    56    1
    59    12    57    1
    60    12    58    1
    61    15    59    1
    62    15    60    1
    63    17    61    1
    64    19    62    1
@<TRIPOS>SUBSTRUCTURE
     1 RES1        1 GROUP             0 ****  ****    0  
@<TRIPOS>MOLECULE
66.2741
    62    64     1     0     0
SMALL
NO_CHARGES
****
Generated from the CSD

@<TRIPOS>ATOM
     1 C       18.9260   1.1839  49.9244   C.3       1 RES1   0.0000
     2 O       18.9982   2.5708  49.5663   O.3       1 RES1   0.0000
     3 C       20.0993   2.8277  48.6819   C.3       1 RES1   0.0000
     4 C       21.4105   2.9190  49.4919   C.3       1 RES1   0.0000
     5 O       21.5920   1.7610  50.3189   O.3       1 RES1   0.0000
     6 C       22.7853   1.7679  51.0359   C.ar      1 RES1   0.0000
     7 C       23.9000   2.4172  50.5031   C.ar      1 RES1   0.0000
     8 C       25.1213   2.3977  51.1815   C.ar      1 RES1   0.0000
     9 C       25.1749   1.8234  52.4522   C.ar      1 RES1   0.0000
    10 C       24.0521   1.2063  53.0048   C.ar      1 RES1   0.0000
    11 C       22.8609   1.1332  52.2773   C.ar      1 RES1   0.0000
    12 O       21.7428   0.4527  52.7680   O.3       1 RES1   0.0000
    13 C       21.7016   0.0871  54.1579   C.3       1 RES1   0.0000
    14 C       21.4423  -1.4234  54.3534   C.3       1 RES1   0.0000
    15 O       22.0763  -1.8876  55.5537   O.3       1 RES1   0.0000
    16 C       23.4548  -1.4951  55.6054   C.3       1 RES1   0.0000
    17 N       26.3188   1.8625  53.1610   N.ar      1 RES1   0.0000
    18 C       27.4113   2.4705  52.6623   C.ar      1 RES1   0.0000
    19 N       27.3986   3.0011  51.4248   N.ar      1 RES1   0.0000
    20 C       26.2982   2.9355  50.6498   C.ar      1 RES1   0.0000
    21 N       26.3700   3.3754  49.3717   N.pl3     1 RES1   0.0000
    22 C       26.8111   4.6218  49.0797   C.ar      1 RES1   0.0000
    23 C       28.0561   4.7837  48.4665   C.ar      1 RES1   0.0000
    24 C       28.5462   6.0597  48.1852   C.ar      1 RES1   0.0000
    25 C       27.7914   7.1853  48.5154   C.ar      1 RES1   0.0000
    26 C       26.5381   7.0290  49.1080   C.ar      1 RES1   0.0000
    27 C       26.0409   5.7516  49.3713   C.ar      1 RES1   0.0000
    28 C       25.7539   8.1886  49.4464   C.1       1 RES1   0.0000
    29 C       25.0983   9.1578  49.7294   C.1       1 RES1   0.0000
    30 H1      19.8495   0.8698  50.4332   H         1 RES1   0.0000
    31 H2      18.7705   0.5634  49.0292   H         1 RES1   0.0000
    32 H3      18.0777   1.0423  50.6097   H         1 RES1   0.0000
    33 H4      20.1979   2.0197  47.9409   H         1 RES1   0.0000
    34 H5      19.9367   3.7827  48.1593   H         1 RES1   0.0000
    35 H6      22.2582   2.9693  48.7922   H         1 RES1   0.0000
    36 H7      21.4037   3.8317  50.1035   H         1 RES1   0.0000
    37 H8      23.7923   2.9345  49.5579   H         1 RES1   0.0000
    38 H9      24.1295   0.7942  54.0025   H         1 RES1   0.0000
    39 H10     22.6171   0.3869  54.6863   H         1 RES1   0.0000
    40 H11     20.8600   0.6347  54.6084   H         1 RES1   0.0000
    41 H12     21.8308  -1.9715  53.4826   H         1 RES1   0.0000
    42 H13     20.3556  -1.5841  54.4221   H         1 RES1   0.0000
    43 H14     24.0084  -1.9201  54.7548   H         1 RES1   0.0000
    44 H15     23.8907  -1.8768  56.5402   H         1 RES1   0.0000
    45 H16     23.5449  -0.3985  55.5905   H         1 RES1   0.0000
    46 H17     28.3115   2.5327  53.2628   H         1 RES1   0.0000
    47 H18     26.1600   2.7275  48.5997   H         1 RES1   0.0000
    48 H19     28.6525   3.9157  48.2081   H         1 RES1   0.0000
    49 H20     29.5146   6.1764  47.7112   H         1 RES1   0.0000
    50 H21     28.1769   8.1781  48.3108   H         1 RES1   0.0000
    51 H22     25.0481   5.6532  49.7950   H         1 RES1   0.0000
    52 H23     24.5233  10.0079  49.9776   H         1 RES1   0.0000
    53 ****    19.1142   3.1155  50.3969   Du        1 RES1   0.0000
    54 ****    18.1474   2.8339  49.1113   Du        1 RES1   0.0000
    55 ****    21.5797   0.9501  49.7339   Du        1 RES1   0.0000
    56 ****    20.8333   1.7149  50.9687   Du        1 RES1   0.0000
    57 ****    21.6598  -0.3927  52.2404   Du        1 RES1   0.0000
    58 ****    20.9473   1.0334  52.5944   Du        1 RES1   0.0000
    59 ****    22.0212  -2.8856  55.5853   Du        1 RES1   0.0000
    60 ****    21.5989  -1.5022  56.3434   Du        1 RES1   0.0000
    61 ****    26.3571   1.4367  54.0650   Du        1 RES1   0.0000
    62 ****    28.2200   3.4515  51.0749   Du        1 RES1   0.0000
@<TRIPOS>BOND
     1     1     2    1
     2     2     3    1
     3     3     4    1
     4     4     5    1
     5     5     6    1
     6     6     7   ar
     7     7     8   ar
     8     8     9   ar
     9     9    10   ar
    10    10    11   ar
    11     6    11   ar
    12    11    12    1
    13    12    13    1
    14    13    14    1
    15    14    15    1
    16    15    16    1
    17     9    17   ar
    18    17    18   ar
    19    18    19   ar
    20    19    20   ar
    21     8    20   ar
    22    20    21    1
    23    21    22    1
    24    22    23   ar
    25    23    24   ar
    26    24    25   ar
    27    25    26   ar
    28    26    27   ar
    29    22    27   ar
    30    26    28    1
    31    28    29    3
    32     1    30    1
    33     1    31    1
    34     1    32    1
    35     3    33    1
    36     3    34    1
    37     4    35    1
    38     4    36    1
    39     7    37    1
    40    10    38    1
    41    13    39    1
    42    13    40    1
    43    14    41    1
    44    14    42    1
    45    16    43    1
    46    16    44    1
    47    16    45    1
    48    18    46    1
    49    21    47    1
    50    23    48    1
    51    24    49    1
    52    25    50    1
    53    27    51    1
    54    29    52    1
    55     2    53    1
    56     2    54    1
    57     5    55    1
    58     5    56    1
    59    12    57    1
    60    12    58    1
    61    15    59    1
    62    15    60    1
    63    17    61    1
    64    19    62    1
@<TRIPOS>SUBSTRUCTURE
     1 RES1        1 GROUP             0 ****  ****    0  
@<TRIPOS>MOLECULE
66.2284
    62    64     1     0     0
SMALL
NO_CHARGES
****
Generated from the CSD

@<TRIPOS>ATOM
     1 C       20.1109  -1.1508  53.8310   C.3       1 RES1   0.0000
     2 O       21.1046  -0.3711  54.5104   O.3       1 RES1   0.0000
     3 C       22.4081  -0.9593  54.3864   C.3       1 RES1   0.0000
     4 C       23.1515  -0.3354  53.1857   C.3       1 RES1   0.0000
     5 O       24.5711  -0.3455  53.3914   O.3       1 RES1   0.0000
     6 C       25.2468   0.6372  52.6733   C.ar      1 RES1   0.0000
     7 C       24.5385   1.4379  51.7760   C.ar      1 RES1   0.0000
     8 C       25.2022   2.3991  51.0093   C.ar      1 RES1   0.0000
     9 C       26.5593   2.6254  51.2435   C.ar      1 RES1   0.0000
    10 C       27.2630   1.8522  52.1675   C.ar      1 RES1   0.0000
    11 C       26.6193   0.8192  52.8546   C.ar      1 RES1   0.0000
    12 O       27.3129  -0.0250  53.7266   O.3       1 RES1   0.0000
    13 C       28.7435   0.0867  53.8171   C.3       1 RES1   0.0000
    14 C       29.4461  -1.2742  53.6144   C.3       1 RES1   0.0000
    15 O       28.5128  -2.3493  53.7915   O.3       1 RES1   0.0000
    16 C       27.6991  -2.5362  52.6254   C.3       1 RES1   0.0000
    17 N       27.2042   3.6003  50.5759   N.ar      1 RES1   0.0000
    18 C       26.5457   4.3763  49.6948   C.ar      1 RES1   0.0000
    19 N       25.2454   4.1570  49.4228   N.ar      1 RES1   0.0000
    20 C       24.5682   3.1555  50.0180   C.ar      1 RES1   0.0000
    21 N       23.2986   2.8989  49.6249   N.pl3     1 RES1   0.0000
    22 C       22.8075   3.3930  48.4639   C.ar      1 RES1   0.0000
    23 C       22.2200   2.5236  47.5413   C.ar      1 RES1   0.0000
    24 C       21.7359   3.0046  46.3240   C.ar      1 RES1   0.0000
    25 C       21.8355   4.3626  46.0212   C.ar      1 RES1   0.0000
    26 C       22.4015   5.2388  46.9478   C.ar      1 RES1   0.0000
    27 C       22.8678   4.7592  48.1728   C.ar      1 RES1   0.0000
    28 C       22.5022   6.6422  46.6407   C.1       1 RES1   0.0000
    29 C       22.5865   7.8153  46.3838   C.1       1 RES1   0.0000
    30 H1      20.0656  -2.1665  54.2516   H         1 RES1   0.0000
    31 H2      20.3365  -1.2083  52.7557   H         1 RES1   0.0000
    32 H3      19.1327  -0.6670  53.9661   H         1 RES1   0.0000
    33 H4      23.0004  -0.7845  55.2976   H         1 RES1   0.0000
    34 H5      22.3087  -2.0428  54.2194   H         1 RES1   0.0000
    35 H6      22.9373  -0.9315  52.2859   H         1 RES1   0.0000
    36 H7      22.7933   0.6903  53.0224   H         1 RES1   0.0000
    37 H8      23.4681   1.2963  51.6928   H         1 RES1   0.0000
    38 H9      28.3082   2.0759  52.3365   H         1 RES1   0.0000
    39 H10     29.1407   0.8283  53.1103   H         1 RES1   0.0000
    40 H11     28.9737   0.4368  54.8347   H         1 RES1   0.0000
    41 H12     30.2711  -1.3651  54.3361   H         1 RES1   0.0000
    42 H13     29.8579  -1.3050  52.5941   H         1 RES1   0.0000
    43 H14     27.1176  -1.6269  52.4118   H         1 RES1   0.0000
    44 H15     27.0038  -3.3669  52.8154   H         1 RES1   0.0000
    45 H16     28.3239  -2.7850  51.7545   H         1 RES1   0.0000
    46 H17     27.0681   5.1857  49.1980   H         1 RES1   0.0000
    47 H18     22.7173   2.2532  50.1772   H         1 RES1   0.0000
    48 H19     22.1399   1.4656  47.7651   H         1 RES1   0.0000
    49 H20     21.2835   2.3224  45.6126   H         1 RES1   0.0000
    50 H21     21.4731   4.7359  45.0697   H         1 RES1   0.0000
    51 H22     23.2667   5.4638  48.8934   H         1 RES1   0.0000
    52 H23     22.6604   8.8443  46.1585   H         1 RES1   0.0000
    53 ****    20.8651  -0.3122  55.4795   Du        1 RES1   0.0000
    54 ****    21.1233   0.5473  54.1153   Du        1 RES1   0.0000
    55 ****    24.9241  -1.2389  53.1133   Du        1 RES1   0.0000
    56 ****    24.7502  -0.2047  54.3650   Du        1 RES1   0.0000
    57 ****    27.1097  -0.9638  53.4485   Du        1 RES1   0.0000
    58 ****    26.9480   0.1375  54.6434   Du        1 RES1   0.0000
    59 ****    27.9213  -2.1412  54.5706   Du        1 RES1   0.0000
    60 ****    29.0189  -3.1924  53.9732   Du        1 RES1   0.0000
    61 ****    28.1800   3.7493  50.7358   Du        1 RES1   0.0000
    62 ****    24.7740   4.7475  48.7677   Du        1 RES1   0.0000
@<TRIPOS>BOND
     1     1     2    1
     2     2     3    1
     3     3     4    1
     4     4     5    1
     5     5     6    1
     6     6     7   ar
     7     7     8   ar
     8     8     9   ar
     9     9    10   ar
    10    10    11   ar
    11     6    11   ar
    12    11    12    1
    13    12    13    1
    14    13    14    1
    15    14    15    1
    16    15    16    1
    17     9    17   ar
    18    17    18   ar
    19    18    19   ar
    20    19    20   ar
    21     8    20   ar
    22    20    21    1
    23    21    22    1
    24    22    23   ar
    25    23    24   ar
    26    24    25   ar
    27    25    26   ar
    28    26    27   ar
    29    22    27   ar
    30    26    28    1
    31    28    29    3
    32     1    30    1
    33     1    31    1
    34     1    32    1
    35     3    33    1
    36     3    34    1
    37     4    35    1
    38     4    36    1
    39     7    37    1
    40    10    38    1
    41    13    39    1
    42    13    40    1
    43    14    41    1
    44    14    42    1
    45    16    43    1
    46    16    44    1
    47    16    45    1
    48    18    46    1
    49    21    47    1
    50    23    48    1
    51    24    49    1
    52    25    50    1
    53    27    51    1
    54    29    52    1
    55     2    53    1
    56     2    54    1
    57     5    55    1
    58     5    56    1
    59    12    57    1
    60    12    58    1
    61    15    59    1
    62    15    60    1
    63    17    61    1
    64    19    62    1
@<TRIPOS>SUBSTRUCTURE
     1 RES1        1 GROUP             0 ****  ****    0  
@<TRIPOS>MOLECULE
66.0077
    62    64     1     0     0
SMALL
NO_CHARGES
****
Generated from the CSD

@<TRIPOS>ATOM
     1 C       22.6146  -1.2009  55.2993   C.3       1 RES1   0.0000
     2 O       21.4505  -0.8548  54.5365   O.3       1 RES1   0.0000
     3 C       21.7520  -0.7517  53.1369   C.3       1 RES1   0.0000
     4 C       22.2243   0.6808  52.8076   C.3       1 RES1   0.0000
     5 O       23.4382   1.0001  53.5021   O.3       1 RES1   0.0000
     6 C       24.3856   1.6388  52.7068   C.ar      1 RES1   0.0000
     7 C       23.9602   2.4484  51.6524   C.ar      1 RES1   0.0000
     8 C       24.8919   3.0621  50.8113   C.ar      1 RES1   0.0000
     9 C       26.2490   2.9492  51.1162   C.ar      1 RES1   0.0000
    10 C       26.6767   2.1713  52.1926   C.ar      1 RES1   0.0000
    11 C       25.7472   1.4713  52.9670   C.ar      1 RES1   0.0000
    12 O       26.1473   0.6203  54.0013   O.3       1 RES1   0.0000
    13 C       27.4946   0.7067  54.4956   C.3       1 RES1   0.0000
    14 C       28.4716  -0.1629  53.6732   C.3       1 RES1   0.0000
    15 O       28.4106  -1.5290  54.1071   O.3       1 RES1   0.0000
    16 C       29.0936  -2.4008  53.1958   C.3       1 RES1   0.0000
    17 N       27.1628   3.5968  50.3694   N.ar      1 RES1   0.0000
    18 C       26.7779   4.3720  49.3385   C.ar      1 RES1   0.0000
    19 N       25.4784   4.4704  48.9997   N.ar      1 RES1   0.0000
    20 C       24.5289   3.7949  49.6763   C.ar      1 RES1   0.0000
    21 N       23.2529   3.8304  49.2257   N.pl3     1 RES1   0.0000
    22 C       22.9163   4.5340  48.1190   C.ar      1 RES1   0.0000
    23 C       23.3205   5.8665  48.0028   C.ar      1 RES1   0.0000
    24 C       22.9582   6.6215  46.8865   C.ar      1 RES1   0.0000
    25 C       22.1879   6.0466  45.8756   C.ar      1 RES1   0.0000
    26 C       21.7998   4.7102  45.9760   C.ar      1 RES1   0.0000
    27 C       22.1791   3.9508  47.0839   C.ar      1 RES1   0.0000
    28 C       21.0082   4.1119  44.9323   C.1       1 RES1   0.0000
    29 C       20.3463   3.6118  44.0598   C.1       1 RES1   0.0000
    30 H1      23.3959  -0.4361  55.1766   H         1 RES1   0.0000
    31 H2      23.0051  -2.1793  54.9820   H         1 RES1   0.0000
    32 H3      22.3347  -1.2547  56.3615   H         1 RES1   0.0000
    33 H4      22.5487  -1.4586  52.8589   H         1 RES1   0.0000
    34 H5      20.8483  -0.9725  52.5484   H         1 RES1   0.0000
    35 H6      22.4259   0.7496  51.7281   H         1 RES1   0.0000
    36 H7      21.4333   1.3985  53.0648   H         1 RES1   0.0000
    37 H8      22.8963   2.5885  51.5069   H         1 RES1   0.0000
    38 H9      27.7361   2.1294  52.4092   H         1 RES1   0.0000
    39 H10     27.8501   1.7457  54.5329   H         1 RES1   0.0000
    40 H11     27.4835   0.3192  55.5256   H         1 RES1   0.0000
    41 H12     29.4923   0.2286  53.7944   H         1 RES1   0.0000
    42 H13     28.1867  -0.0979  52.6120   H         1 RES1   0.0000
    43 H14     28.6335  -2.3513  52.1976   H         1 RES1   0.0000
    44 H15     29.0143  -3.4306  53.5736   H         1 RES1   0.0000
    45 H16     30.1570  -2.1272  53.1235   H         1 RES1   0.0000
    46 H17     27.5219   4.9222  48.7742   H         1 RES1   0.0000
    47 H18     22.5366   3.2507  49.6847   H         1 RES1   0.0000
    48 H19     23.9171   6.3243  48.7841   H         1 RES1   0.0000
    49 H20     23.2741   7.6557  46.8055   H         1 RES1   0.0000
    50 H21     21.8931   6.6359  45.0143   H         1 RES1   0.0000
    51 H22     21.9006   2.9040  47.1214   H         1 RES1   0.0000
    52 H23     19.7658   3.1731  43.2946   H         1 RES1   0.0000
    53 ****    21.0998   0.0243  54.8593   Du        1 RES1   0.0000
    54 ****    20.7539  -1.5601  54.6681   Du        1 RES1   0.0000
    55 ****    23.8370   0.1508  53.8479   Du        1 RES1   0.0000
    56 ****    23.2142   1.6001  54.2700   Du        1 RES1   0.0000
    57 ****    26.0136  -0.3164  53.6779   Du        1 RES1   0.0000
    58 ****    25.5396   0.7954  54.7760   Du        1 RES1   0.0000
    59 ****    27.4523  -1.8083  54.1676   Du        1 RES1   0.0000
    60 ****    28.8368  -1.6030  55.0087   Du        1 RES1   0.0000
    61 ****    28.1353   3.5012  50.5821   Du        1 RES1   0.0000
    62 ****    25.2135   5.0547  48.2327   Du        1 RES1   0.0000
@<TRIPOS>BOND
     1     1     2    1
     2     2     3    1
     3     3     4    1
     4     4     5    1
     5     5     6    1
     6     6     7   ar
     7     7     8   ar
     8     8     9   ar
     9     9    10   ar
    10    10    11   ar
    11     6    11   ar
    12    11    12    1
    13    12    13    1
    14    13    14    1
    15    14    15    1
    16    15    16    1
    17     9    17   ar
    18    17    18   ar
    19    18    19   ar
    20    19    20   ar
    21     8    20   ar
    22    20    21    1
    23    21    22    1
    24    22    23   ar
    25    23    24   ar
    26    24    25   ar
    27    25    26   ar
    28    26    27   ar
    29    22    27   ar
    30    26    28    1
    31    28    29    3
    32     1    30    1
    33     1    31    1
    34     1    32    1
    35     3    33    1
    36     3    34    1
    37     4    35    1
    38     4    36    1
    39     7    37    1
    40    10    38    1
    41    13    39    1
    42    13    40    1
    43    14    41    1
    44    14    42    1
    45    16    43    1
    46    16    44    1
    47    16    45    1
    48    18    46    1
    49    21    47    1
    50    23    48    1
    51    24    49    1
    52    25    50    1
    53    27    51    1
    54    29    52    1
    55     2    53    1
    56     2    54    1
    57     5    55    1
    58     5    56    1
    59    12    57    1
    60    12    58    1
    61    15    59    1
    62    15    60    1
    63    17    61    1
    64    19    62    1
@<TRIPOS>SUBSTRUCTURE
     1 RES1        1 GROUP             0 ****  ****    0  
@<TRIPOS>MOLECULE
65.8856
    62    64     1     0     0
SMALL
NO_CHARGES
****
Generated from the CSD

@<TRIPOS>ATOM
     1 C       27.2194   7.6220  47.3945   C.3       1 RES1   0.0000
     2 O       28.5629   7.1202  47.3890   O.3       1 RES1   0.0000
     3 C       28.7887   6.2135  48.4787   C.3       1 RES1   0.0000
     4 C       27.6837   5.1354  48.4996   C.3       1 RES1   0.0000
     5 O       27.6002   4.5018  49.7839   O.3       1 RES1   0.0000
     6 C       26.3741   3.8886  50.0259   C.ar      1 RES1   0.0000
     7 C       25.2469   4.3101  49.3190   C.ar      1 RES1   0.0000
     8 C       23.9965   3.7427  49.5777   C.ar      1 RES1   0.0000
     9 C       23.9168   2.6686  50.4651   C.ar      1 RES1   0.0000
    10 C       25.0489   2.2192  51.1456   C.ar      1 RES1   0.0000
    11 C       26.2780   2.8597  50.9649   C.ar      1 RES1   0.0000
    12 O       27.4129   2.4865  51.6907   O.3       1 RES1   0.0000
    13 C       27.3383   1.3511  52.5697   C.3       1 RES1   0.0000
    14 C       27.1867   1.7710  54.0488   C.3       1 RES1   0.0000
    15 O       28.0034   2.9168  54.3288   O.3       1 RES1   0.0000
    16 C       29.3649   2.7009  53.9332   C.3       1 RES1   0.0000
    17 N       22.7382   2.0517  50.6711   N.ar      1 RES1   0.0000
    18 C       21.6341   2.4495  50.0118   C.ar      1 RES1   0.0000
    19 N       21.6743   3.5055  49.1775   N.ar      1 RES1   0.0000
    20 C       22.8148   4.1960  48.9819   C.ar      1 RES1   0.0000
    21 N       22.7791   5.3201  48.2286   N.pl3     1 RES1   0.0000
    22 C       22.3488   5.2944  46.9451   C.ar      1 RES1   0.0000
    23 C       21.5254   4.2497  46.5174   C.ar      1 RES1   0.0000
    24 C       21.0958   4.1843  45.1913   C.ar      1 RES1   0.0000
    25 C       21.4872   5.1669  44.2819   C.ar      1 RES1   0.0000
    26 C       22.2915   6.2241  44.7085   C.ar      1 RES1   0.0000
    27 C       22.7047   6.2985  46.0396   C.ar      1 RES1   0.0000
    28 C       22.6941   7.2428  43.7736   C.1       1 RES1   0.0000
    29 C       23.0309   8.0944  42.9920   C.1       1 RES1   0.0000
    30 H1      27.0141   8.1608  48.3315   H         1 RES1   0.0000
    31 H2      26.5005   6.7970  47.2800   H         1 RES1   0.0000
    32 H3      27.1017   8.3186  46.5517   H         1 RES1   0.0000
    33 H4      29.7649   5.7161  48.3731   H         1 RES1   0.0000
    34 H5      28.7635   6.7673  49.4297   H         1 RES1   0.0000
    35 H6      26.7145   5.6153  48.2973   H         1 RES1   0.0000
    36 H7      27.8791   4.3914  47.7152   H         1 RES1   0.0000
    37 H8      25.3677   5.0814  48.5685   H         1 RES1   0.0000
    38 H9      24.9486   1.3683  51.8067   H         1 RES1   0.0000
    39 H10     26.5277   0.6664  52.2842   H         1 RES1   0.0000
    40 H11     28.2887   0.8056  52.4697   H         1 RES1   0.0000
    41 H12     27.4790   0.9297  54.6941   H         1 RES1   0.0000
    42 H13     26.1296   2.0147  54.2350   H         1 RES1   0.0000
    43 H14     29.7944   1.8485  54.4805   H         1 RES1   0.0000
    44 H15     29.9442   3.6050  54.1713   H         1 RES1   0.0000
    45 H16     29.4271   2.5110  52.8512   H         1 RES1   0.0000
    46 H17     20.7022   1.9148  50.1550   H         1 RES1   0.0000
    47 H18     23.0087   6.2267  48.6592   H         1 RES1   0.0000
    48 H19     21.2174   3.4789  47.2152   H         1 RES1   0.0000
    49 H20     20.4587   3.3687  44.8672   H         1 RES1   0.0000
    50 H21     21.1663   5.1098  43.2476   H         1 RES1   0.0000
    51 H22     23.2954   7.1498  46.3577   H         1 RES1   0.0000
    52 H23     23.3263   8.8413  42.3066   H         1 RES1   0.0000
    53 ****    29.1974   7.8890  47.4688   Du        1 RES1   0.0000
    54 ****    28.7273   6.6404  46.5272   Du        1 RES1   0.0000
    55 ****    27.7512   5.1952  50.4885   Du        1 RES1   0.0000
    56 ****    28.3174   3.8073  49.8406   Du        1 RES1   0.0000
    57 ****    27.6743   3.2731  52.2502   Du        1 RES1   0.0000
    58 ****    28.1354   2.2953  51.0263   Du        1 RES1   0.0000
    59 ****    27.9759   3.1032  55.3109   Du        1 RES1   0.0000
    60 ****    27.6409   3.7040  53.8298   Du        1 RES1   0.0000
    61 ****    22.6825   1.2921  51.3191   Du        1 RES1   0.0000
    62 ****    20.8434   3.7822  48.6947   Du        1 RES1   0.0000
@<TRIPOS>BOND
     1     1     2    1
     2     2     3    1
     3     3     4    1
     4     4     5    1
     5     5     6    1
     6     6     7   ar
     7     7     8   ar
     8     8     9   ar
     9     9    10   ar
    10    10    11   ar
    11     6    11   ar
    12    11    12    1
    13    12    13    1
    14    13    14    1
    15    14    15    1
    16    15    16    1
    17     9    17   ar
    18    17    18   ar
    19    18    19   ar
    20    19    20   ar
    21     8    20   ar
    22    20    21    1
    23    21    22    1
    24    22    23   ar
    25    23    24   ar
    26    24    25   ar
    27    25    26   ar
    28    26    27   ar
    29    22    27   ar
    30    26    28    1
    31    28    29    3
    32     1    30    1
    33     1    31    1
    34     1    32    1
    35     3    33    1
    36     3    34    1
    37     4    35    1
    38     4    36    1
    39     7    37    1
    40    10    38    1
    41    13    39    1
    42    13    40    1
    43    14    41    1
    44    14    42    1
    45    16    43    1
    46    16    44    1
    47    16    45    1
    48    18    46    1
    49    21    47    1
    50    23    48    1
    51    24    49    1
    52    25    50    1
    53    27    51    1
    54    29    52    1
    55     2    53    1
    56     2    54    1
    57     5    55    1
    58     5    56    1
    59    12    57    1
    60    12    58    1
    61    15    59    1
    62    15    60    1
    63    17    61    1
    64    19    62    1
@<TRIPOS>SUBSTRUCTURE
     1 RES1        1 GROUP             0 ****  ****    0  
@<TRIPOS>MOLECULE
65.1224
    62    64     1     0     0
SMALL
NO_CHARGES
****
Generated from the CSD

@<TRIPOS>ATOM
     1 C       21.4997  -2.0973  54.3993   C.3       1 RES1   0.0000
     2 O       21.0584  -0.8399  53.8693   O.3       1 RES1   0.0000
     3 C       22.0419   0.1869  54.0667   C.3       1 RES1   0.0000
     4 C       23.3499  -0.1952  53.3410   C.3       1 RES1   0.0000
     5 O       24.4833   0.4491  53.9393   O.3       1 RES1   0.0000
     6 C       25.2045   1.2463  53.0547   C.ar      1 RES1   0.0000
     7 C       24.5410   1.8629  51.9928   C.ar      1 RES1   0.0000
     8 C       25.2506   2.6294  51.0648   C.ar      1 RES1   0.0000
     9 C       26.6082   2.8653  51.2861   C.ar      1 RES1   0.0000
    10 C       27.2672   2.2812  52.3684   C.ar      1 RES1   0.0000
    11 C       26.5773   1.4276  53.2339   C.ar      1 RES1   0.0000
    12 O       27.2253   0.7636  54.2795   O.3       1 RES1   0.0000
    13 C       28.6581   0.6484  54.2526   C.3       1 RES1   0.0000
    14 C       29.1190  -0.7746  53.8659   C.3       1 RES1   0.0000
    15 O       28.0048  -1.6784  53.8686   O.3       1 RES1   0.0000
    16 C       27.2086  -1.5343  52.6844   C.3       1 RES1   0.0000
    17 N       27.2971   3.6661  50.4517   N.ar      1 RES1   0.0000
    18 C       26.6824   4.2606  49.4121   C.ar      1 RES1   0.0000
    19 N       25.3826   4.0224  49.1539   N.ar      1 RES1   0.0000
    20 C       24.6623   3.1816  49.9221   C.ar      1 RES1   0.0000
    21 N       23.3948   2.8813  49.5539   N.pl3     1 RES1   0.0000
    22 C       22.8377   3.4198  48.4435   C.ar      1 RES1   0.0000
    23 C       22.1475   2.5946  47.5520   C.ar      1 RES1   0.0000
    24 C       21.5926   3.1210  46.3847   C.ar      1 RES1   0.0000
    25 C       21.7239   4.4805  46.1014   C.ar      1 RES1   0.0000
    26 C       22.3932   5.3132  46.9987   C.ar      1 RES1   0.0000
    27 C       22.9310   4.7888  48.1751   C.ar      1 RES1   0.0000
    28 C       22.5270   6.7181  46.7119   C.1       1 RES1   0.0000
    29 C       22.6391   7.8926  46.4721   C.1       1 RES1   0.0000
    30 H1      21.6897  -2.0136  55.4797   H         1 RES1   0.0000
    31 H2      22.4167  -2.4287  53.8896   H         1 RES1   0.0000
    32 H3      20.7093  -2.8440  54.2350   H         1 RES1   0.0000
    33 H4      21.6844   1.1481  53.6670   H         1 RES1   0.0000
    34 H5      22.2503   0.2951  55.1422   H         1 RES1   0.0000
    35 H6      23.4982  -1.2824  53.4235   H         1 RES1   0.0000
    36 H7      23.2730   0.0702  52.2776   H         1 RES1   0.0000
    37 H8      23.4691   1.7339  51.9100   H         1 RES1   0.0000
    38 H9      28.3146   2.5088  52.5176   H         1 RES1   0.0000
    39 H10     29.1150   1.3906  53.5835   H         1 RES1   0.0000
    40 H11     29.0151   0.8527  55.2734   H         1 RES1   0.0000
    41 H12     29.8837  -1.1127  54.5806   H         1 RES1   0.0000
    42 H13     29.5623  -0.7355  52.8591   H         1 RES1   0.0000
    43 H14     26.8045  -0.5134  52.6139   H         1 RES1   0.0000
    44 H15     26.3714  -2.2455  52.7391   H         1 RES1   0.0000
    45 H16     27.8069  -1.7547  51.7876   H         1 RES1   0.0000
    46 H17     27.2400   4.9375  48.7752   H         1 RES1   0.0000
    47 H18     22.8680   2.1714  50.0816   H         1 RES1   0.0000
    48 H19     22.0419   1.5357  47.7608   H         1 RES1   0.0000
    49 H20     21.0606   2.4729  45.6970   H         1 RES1   0.0000
    50 H21     21.3060   4.8887  45.1878   H         1 RES1   0.0000
    51 H22     23.4113   5.4612  48.8765   H         1 RES1   0.0000
    52 H23     22.7373   8.9226  46.2617   H         1 RES1   0.0000
    53 ****    20.2119  -0.5722  54.3294   Du        1 RES1   0.0000
    54 ****    20.8872  -0.9421  52.8894   Du        1 RES1   0.0000
    55 ****    25.0943  -0.2563  54.2986   Du        1 RES1   0.0000
    56 ****    24.1596   1.0240  54.6907   Du        1 RES1   0.0000
    57 ****    26.8574  -0.1659  54.3084   Du        1 RES1   0.0000
    58 ****    26.9859   1.2432  55.1237   Du        1 RES1   0.0000
    59 ****    27.4350  -1.4894  54.6683   Du        1 RES1   0.0000
    60 ****    28.3475  -2.6166  53.9176   Du        1 RES1   0.0000
    61 ****    28.2731   3.8204  50.6053   Du        1 RES1   0.0000
    62 ****    24.9442   4.4773  48.3787   Du        1 RES1   0.0000
@<TRIPOS>BOND
     1     1     2    1
     2     2     3    1
     3     3     4    1
     4     4     5    1
     5     5     6    1
     6     6     7   ar
     7     7     8   ar
     8     8     9   ar
     9     9    10   ar
    10    10    11   ar
    11     6    11   ar
    12    11    12    1
    13    12    13    1
    14    13    14    1
    15    14    15    1
    16    15    16    1
    17     9    17   ar
    18    17    18   ar
    19    18    19   ar
    20    19    20   ar
    21     8    20   ar
    22    20    21    1
    23    21    22    1
    24    22    23   ar
    25    23    24   ar
    26    24    25   ar
    27    25    26   ar
    28    26    27   ar
    29    22    27   ar
    30    26    28    1
    31    28    29    3
    32     1    30    1
    33     1    31    1
    34     1    32    1
    35     3    33    1
    36     3    34    1
    37     4    35    1
    38     4    36    1
    39     7    37    1
    40    10    38    1
    41    13    39    1
    42    13    40    1
    43    14    41    1
    44    14    42    1
    45    16    43    1
    46    16    44    1
    47    16    45    1
    48    18    46    1
    49    21    47    1
    50    23    48    1
    51    24    49    1
    52    25    50    1
    53    27    51    1
    54    29    52    1
    55     2    53    1
    56     2    54    1
    57     5    55    1
    58     5    56    1
    59    12    57    1
    60    12    58    1
    61    15    59    1
    62    15    60    1
    63    17    61    1
    64    19    62    1
@<TRIPOS>SUBSTRUCTURE
     1 RES1        1 GROUP             0 ****  ****    0  
@<TRIPOS>MOLECULE
64.8907
    62    64     1     0     0
SMALL
NO_CHARGES
****
Generated from the CSD

@<TRIPOS>ATOM
     1 C       27.5956   0.5128  54.5762   C.3       1 RES1   0.0000
     2 O       27.7514   1.9379  54.5355   O.3       1 RES1   0.0000
     3 C       28.1352   2.3865  53.2271   C.3       1 RES1   0.0000
     4 C       26.9110   2.3651  52.2867   C.3       1 RES1   0.0000
     5 O       27.1803   3.0703  51.0670   O.3       1 RES1   0.0000
     6 C       26.0332   3.4906  50.3994   C.ar      1 RES1   0.0000
     7 C       24.8590   2.7459  50.5213   C.ar      1 RES1   0.0000
     8 C       23.7079   3.1209  49.8238   C.ar      1 RES1   0.0000
     9 C       23.7188   4.3152  49.1020   C.ar      1 RES1   0.0000
    10 C       24.8805   5.0825  49.0088   C.ar      1 RES1   0.0000
    11 C       26.0604   4.6484  49.6195   C.ar      1 RES1   0.0000
    12 O       27.2604   5.3515  49.4787   O.3       1 RES1   0.0000
    13 C       27.3688   6.3498  48.4498   C.3       1 RES1   0.0000
    14 C       28.8350   6.7662  48.1971   C.3       1 RES1   0.0000
    15 O       29.6294   5.6193  47.8630   O.3       1 RES1   0.0000
    16 C       30.9580   5.9952  47.4750   C.3       1 RES1   0.0000
    17 N       22.5994   4.7405  48.4871   N.ar      1 RES1   0.0000
    18 C       21.4584   4.0321  48.5782   C.ar      1 RES1   0.0000
    19 N       21.4283   2.8584  49.2375   N.ar      1 RES1   0.0000
    20 C       22.5357   2.3575  49.8194   C.ar      1 RES1   0.0000
    21 N       22.4857   1.1204  50.3665   N.pl3     1 RES1   0.0000
    22 C       21.7413   0.8676  51.4689   C.ar      1 RES1   0.0000
    23 C       22.3469   0.8944  52.7278   C.ar      1 RES1   0.0000
    24 C       21.6075   0.6055  53.8755   C.ar      1 RES1   0.0000
    25 C       20.2532   0.2880  53.7713   C.ar      1 RES1   0.0000
    26 C       19.6382   0.2809  52.5191   C.ar      1 RES1   0.0000
    27 C       20.3745   0.5888  51.3740   C.ar      1 RES1   0.0000
    28 C       18.2392  -0.0422  52.4078   C.1       1 RES1   0.0000
    29 C       17.0696  -0.3122  52.3150   C.1       1 RES1   0.0000
    30 H1      28.5404   0.0151  54.3111   H         1 RES1   0.0000
    31 H2      26.8044   0.1927  53.8820   H         1 RES1   0.0000
    32 H3      27.3150   0.2197  55.5983   H         1 RES1   0.0000
    33 H4      28.5295   3.4133  53.2696   H         1 RES1   0.0000
    34 H5      28.9082   1.7166  52.8202   H         1 RES1   0.0000
    35 H6      26.6794   1.3210  52.0279   H         1 RES1   0.0000
    36 H7      26.0434   2.8015  52.8004   H         1 RES1   0.0000
    37 H8      24.8641   1.8776  51.1684   H         1 RES1   0.0000
    38 H9      24.8399   6.0139  48.4593   H         1 RES1   0.0000
    39 H10     26.9000   6.0219  47.5116   H         1 RES1   0.0000
    40 H11     26.8229   7.2368  48.8052   H         1 RES1   0.0000
    41 H12     29.2322   7.2531  49.0999   H         1 RES1   0.0000
    42 H13     28.8541   7.4858  47.3644   H         1 RES1   0.0000
    43 H14     30.9306   6.6466  46.5888   H         1 RES1   0.0000
    44 H15     31.5202   5.0826  47.2288   H         1 RES1   0.0000
    45 H16     31.4674   6.5177  48.2986   H         1 RES1   0.0000
    46 H17     20.5543   4.4098  48.1149   H         1 RES1   0.0000
    47 H18     22.9587   0.3374  49.8943   H         1 RES1   0.0000
    48 H19     23.3998   1.1372  52.8201   H         1 RES1   0.0000
    49 H20     22.0861   0.6263  54.8484   H         1 RES1   0.0000
    50 H21     19.6805   0.0489  54.6606   H         1 RES1   0.0000
    51 H22     19.8668   0.6166  50.4168   H         1 RES1   0.0000
    52 H23     16.0438  -0.5491  52.2336   H         1 RES1   0.0000
    53 ****    28.4568   2.2068  55.1914   Du        1 RES1   0.0000
    54 ****    26.8834   2.3672  54.7848   Du        1 RES1   0.0000
    55 ****    27.6955   2.4656  50.4596   Du        1 RES1   0.0000
    56 ****    27.7328   3.8753  51.2830   Du        1 RES1   0.0000
    57 ****    27.9772   4.6756  49.3075   Du        1 RES1   0.0000
    58 ****    27.4353   5.8093  50.3504   Du        1 RES1   0.0000
    59 ****    29.1950   5.1327  47.1050   Du        1 RES1   0.0000
    60 ****    29.6816   5.0169  48.6594   Du        1 RES1   0.0000
    61 ****    22.6155   5.5892  47.9586   Du        1 RES1   0.0000
    62 ****    20.5693   2.3498  49.2965   Du        1 RES1   0.0000
@<TRIPOS>BOND
     1     1     2    1
     2     2     3    1
     3     3     4    1
     4     4     5    1
     5     5     6    1
     6     6     7   ar
     7     7     8   ar
     8     8     9   ar
     9     9    10   ar
    10    10    11   ar
    11     6    11   ar
    12    11    12    1
    13    12    13    1
    14    13    14    1
    15    14    15    1
    16    15    16    1
    17     9    17   ar
    18    17    18   ar
    19    18    19   ar
    20    19    20   ar
    21     8    20   ar
    22    20    21    1
    23    21    22    1
    24    22    23   ar
    25    23    24   ar
    26    24    25   ar
    27    25    26   ar
    28    26    27   ar
    29    22    27   ar
    30    26    28    1
    31    28    29    3
    32     1    30    1
    33     1    31    1
    34     1    32    1
    35     3    33    1
    36     3    34    1
    37     4    35    1
    38     4    36    1
    39     7    37    1
    40    10    38    1
    41    13    39    1
    42    13    40    1
    43    14    41    1
    44    14    42    1
    45    16    43    1
    46    16    44    1
    47    16    45    1
    48    18    46    1
    49    21    47    1
    50    23    48    1
    51    24    49    1
    52    25    50    1
    53    27    51    1
    54    29    52    1
    55     2    53    1
    56     2    54    1
    57     5    55    1
    58     5    56    1
    59    12    57    1
    60    12    58    1
    61    15    59    1
    62    15    60    1
    63    17    61    1
    64    19    62    1
@<TRIPOS>SUBSTRUCTURE
     1 RES1        1 GROUP             0 ****  ****    0  
@<TRIPOS>MOLECULE
64.6373
    62    64     1     0     0
SMALL
NO_CHARGES
****
Generated from the CSD

@<TRIPOS>ATOM
     1 C       28.8121   5.4115  48.4080   C.3       1 RES1   0.0000
     2 O       27.9008   4.7885  49.3236   O.3       1 RES1   0.0000
     3 C       26.5369   5.0905  48.9932   C.3       1 RES1   0.0000
     4 C       25.5966   4.0686  49.6680   C.3       1 RES1   0.0000
     5 O       25.9828   3.8264  51.0281   O.3       1 RES1   0.0000
     6 C       25.2752   2.7919  51.6342   C.ar      1 RES1   0.0000
     7 C       23.9641   2.5325  51.2323   C.ar      1 RES1   0.0000
     8 C       23.2176   1.5307  51.8579   C.ar      1 RES1   0.0000
     9 C       23.8435   0.7182  52.8043   C.ar      1 RES1   0.0000
    10 C       25.1666   0.9505  53.1814   C.ar      1 RES1   0.0000
    11 C       25.8765   2.0216  52.6316   C.ar      1 RES1   0.0000
    12 O       27.1752   2.3304  53.0462   O.3       1 RES1   0.0000
    13 C       27.8351   1.4615  53.9825   C.3       1 RES1   0.0000
    14 C       28.4241   0.2088  53.2963   C.3       1 RES1   0.0000
    15 O       27.8573  -0.9824  53.8600   O.3       1 RES1   0.0000
    16 C       27.0599  -1.6898  52.9004   C.3       1 RES1   0.0000
    17 N       23.1708  -0.3051  53.3633   N.ar      1 RES1   0.0000
    18 C       21.9006  -0.5664  53.0024   C.ar      1 RES1   0.0000
    19 N       21.2605   0.2227  52.1189   N.ar      1 RES1   0.0000
    20 C       21.8678   1.2957  51.5753   C.ar      1 RES1   0.0000
    21 N       21.1472   2.1261  50.7857   N.pl3     1 RES1   0.0000
    22 C       19.7968   2.1795  50.8671   C.ar      1 RES1   0.0000
    23 C       19.1845   3.3234  51.3857   C.ar      1 RES1   0.0000
    24 C       17.7961   3.3890  51.5095   C.ar      1 RES1   0.0000
    25 C       17.0085   2.3080  51.1130   C.ar      1 RES1   0.0000
    26 C       17.6130   1.1719  50.5742   C.ar      1 RES1   0.0000
    27 C       19.0004   1.1153  50.4333   C.ar      1 RES1   0.0000
    28 C       16.8030   0.0556  50.1597   C.1       1 RES1   0.0000
    29 C       16.1257  -0.8775  49.8131   C.1       1 RES1   0.0000
    30 H1      28.6922   6.5049  48.4308   H         1 RES1   0.0000
    31 H2      28.6404   5.0442  47.3852   H         1 RES1   0.0000
    32 H3      29.8392   5.1609  48.7106   H         1 RES1   0.0000
    33 H4      26.2683   6.0999  49.3405   H         1 RES1   0.0000
    34 H5      26.4009   5.0330  47.9024   H         1 RES1   0.0000
    35 H6      24.5747   4.4764  49.6756   H         1 RES1   0.0000
    36 H7      25.5977   3.1314  49.0946   H         1 RES1   0.0000
    37 H8      23.5454   3.1228  50.4268   H         1 RES1   0.0000
    38 H9      25.6220   0.2826  53.9010   H         1 RES1   0.0000
    39 H10     28.6167   1.9881  54.5474   H         1 RES1   0.0000
    40 H11     27.0717   1.1251  54.7003   H         1 RES1   0.0000
    41 H12     29.5165   0.2072  53.4252   H         1 RES1   0.0000
    42 H13     28.1905   0.2581  52.2218   H         1 RES1   0.0000
    43 H14     26.2266  -1.0607  52.5535   H         1 RES1   0.0000
    44 H15     26.6500  -2.5889  53.3834   H         1 RES1   0.0000
    45 H16     27.6727  -1.9947  52.0388   H         1 RES1   0.0000
    46 H17     21.3870  -1.4204  53.4286   H         1 RES1   0.0000
    47 H18     21.6356   2.7868  50.1653   H         1 RES1   0.0000
    48 H19     19.7872   4.1684  51.6997   H         1 RES1   0.0000
    49 H20     17.3292   4.2797  51.9153   H         1 RES1   0.0000
    50 H21     15.9304   2.3514  51.2219   H         1 RES1   0.0000
    51 H22     19.4449   0.2393  49.9751   H         1 RES1   0.0000
    52 H23     15.5318  -1.6959  49.5092   H         1 RES1   0.0000
    53 ****    28.0922   5.1183  50.2480   Du        1 RES1   0.0000
    54 ****    28.0319   3.7977  49.2893   Du        1 RES1   0.0000
    55 ****    25.8305   4.6635  51.5535   Du        1 RES1   0.0000
    56 ****    26.9556   3.5953  51.0438   Du        1 RES1   0.0000
    57 ****    27.1410   3.2385  53.4636   Du        1 RES1   0.0000
    58 ****    27.7449   2.3623  52.2249   Du        1 RES1   0.0000
    59 ****    27.2822  -0.7317  54.6387   Du        1 RES1   0.0000
    60 ****    28.5973  -1.5790  54.1705   Du        1 RES1   0.0000
    61 ****    23.6183  -0.8757  54.0519   Du        1 RES1   0.0000
    62 ****    20.3181   0.0087  51.8617   Du        1 RES1   0.0000
@<TRIPOS>BOND
     1     1     2    1
     2     2     3    1
     3     3     4    1
     4     4     5    1
     5     5     6    1
     6     6     7   ar
     7     7     8   ar
     8     8     9   ar
     9     9    10   ar
    10    10    11   ar
    11     6    11   ar
    12    11    12    1
    13    12    13    1
    14    13    14    1
    15    14    15    1
    16    15    16    1
    17     9    17   ar
    18    17    18   ar
    19    18    19   ar
    20    19    20   ar
    21     8    20   ar
    22    20    21    1
    23    21    22    1
    24    22    23   ar
    25    23    24   ar
    26    24    25   ar
    27    25    26   ar
    28    26    27   ar
    29    22    27   ar
    30    26    28    1
    31    28    29    3
    32     1    30    1
    33     1    31    1
    34     1    32    1
    35     3    33    1
    36     3    34    1
    37     4    35    1
    38     4    36    1
    39     7    37    1
    40    10    38    1
    41    13    39    1
    42    13    40    1
    43    14    41    1
    44    14    42    1
    45    16    43    1
    46    16    44    1
    47    16    45    1
    48    18    46    1
    49    21    47    1
    50    23    48    1
    51    24    49    1
    52    25    50    1
    53    27    51    1
    54    29    52    1
    55     2    53    1
    56     2    54    1
    57     5    55    1
    58     5    56    1
    59    12    57    1
    60    12    58    1
    61    15    59    1
    62    15    60    1
    63    17    61    1
    64    19    62    1
@<TRIPOS>SUBSTRUCTURE
     1 RES1        1 GROUP             0 ****  ****    0  
@<TRIPOS>MOLECULE
62.913
    62    64     1     0     0
SMALL
NO_CHARGES
****
Generated from the CSD

@<TRIPOS>ATOM
     1 C       20.8811  -1.4494  54.1742   C.3       1 RES1   0.0000
     2 O       21.6052  -1.3549  55.4085   O.3       1 RES1   0.0000
     3 C       23.0126  -1.5538  55.2077   C.3       1 RES1   0.0000
     4 C       23.5974  -0.3753  54.3998   C.3       1 RES1   0.0000
     5 O       25.0197  -0.4972  54.2585   O.3       1 RES1   0.0000
     6 C       25.5866   0.4812  53.4465   C.ar      1 RES1   0.0000
     7 C       24.8171   1.0639  52.4384   C.ar      1 RES1   0.0000
     8 C       25.3774   2.0138  51.5804   C.ar      1 RES1   0.0000
     9 C       26.6784   2.4554  51.8249   C.ar      1 RES1   0.0000
    10 C       27.4383   1.9023  52.8561   C.ar      1 RES1   0.0000
    11 C       26.9114   0.8754  53.6444   C.ar      1 RES1   0.0000
    12 O       27.6734   0.2448  54.6323   O.3       1 RES1   0.0000
    13 C       29.0933   0.4681  54.6684   C.3       1 RES1   0.0000
    14 C       29.8265  -0.2718  53.5275   C.3       1 RES1   0.0000
    15 O       29.5963  -1.6849  53.6197   O.3       1 RES1   0.0000
    16 C       28.2912  -2.0370  53.1407   C.3       1 RES1   0.0000
    17 N       27.2136   3.4277  51.0630   N.ar      1 RES1   0.0000
    18 C       26.4961   3.9951  50.0754   C.ar      1 RES1   0.0000
    19 N       25.2519   3.5639  49.7942   N.ar      1 RES1   0.0000
    20 C       24.6918   2.5526  50.4866   C.ar      1 RES1   0.0000
    21 N       23.4887   2.0750  50.0906   N.pl3     1 RES1   0.0000
    22 C       22.5139   2.9031  49.6464   C.ar      1 RES1   0.0000
    23 C       21.6142   2.4482  48.6789   C.ar      1 RES1   0.0000
    24 C       20.6213   3.2937  48.1822   C.ar      1 RES1   0.0000
    25 C       20.5207   4.6032  48.6523   C.ar      1 RES1   0.0000
    26 C       21.4026   5.0560  49.6341   C.ar      1 RES1   0.0000
    27 C       22.3831   4.2033  50.1437   C.ar      1 RES1   0.0000
    28 C       21.2992   6.4059  50.1250   C.1       1 RES1   0.0000
    29 C       21.2129   7.5344  50.5353   C.1       1 RES1   0.0000
    30 H1      21.0216  -2.4421  53.7213   H         1 RES1   0.0000
    31 H2      21.2180  -0.6735  53.4707   H         1 RES1   0.0000
    32 H3      19.8114  -1.3030  54.3831   H         1 RES1   0.0000
    33 H4      23.5372  -1.6142  56.1735   H         1 RES1   0.0000
    34 H5      23.1761  -2.4862  54.6459   H         1 RES1   0.0000
    35 H6      23.1571  -0.3819  53.3914   H         1 RES1   0.0000
    36 H7      23.3391   0.5730  54.8908   H         1 RES1   0.0000
    37 H8      23.7812   0.7636  52.3418   H         1 RES1   0.0000
    38 H9      28.4342   2.2897  53.0271   H         1 RES1   0.0000
    39 H10     29.3389   1.5389  54.6463   H         1 RES1   0.0000
    40 H11     29.4575   0.0604  55.6235   H         1 RES1   0.0000
    41 H12     30.9034  -0.0576  53.5925   H         1 RES1   0.0000
    42 H13     29.4440   0.1042  52.5663   H         1 RES1   0.0000
    43 H14     27.5139  -1.5369  53.7376   H         1 RES1   0.0000
    44 H15     28.1674  -3.1257  53.2356   H         1 RES1   0.0000
    45 H16     28.1792  -1.7553  52.0829   H         1 RES1   0.0000
    46 H17     26.9248   4.8070  49.4995   H         1 RES1   0.0000
    47 H18     23.3347   1.0578  50.0514   H         1 RES1   0.0000
    48 H19     21.6850   1.4330  48.3043   H         1 RES1   0.0000
    49 H20     19.9286   2.9333  47.4297   H         1 RES1   0.0000
    50 H21     19.7590   5.2662  48.2570   H         1 RES1   0.0000
    51 H22     23.0310   4.5636  50.9343   H         1 RES1   0.0000
    52 H23     21.1372   8.5242  50.8952   H         1 RES1   0.0000
    53 ****    21.2650  -2.0522  56.0394   Du        1 RES1   0.0000
    54 ****    21.4581  -0.4480  55.8033   Du        1 RES1   0.0000
    55 ****    25.2221  -1.3928  53.8623   Du        1 RES1   0.0000
    56 ****    25.4339  -0.4332  55.1664   Du        1 RES1   0.0000
    57 ****    27.5346  -0.7397  54.5251   Du        1 RES1   0.0000
    58 ****    27.3083   0.5387  55.5157   Du        1 RES1   0.0000
    59 ****    29.6782  -1.9657  54.5760   Du        1 RES1   0.0000
    60 ****    30.2833  -2.1625  53.0721   Du        1 RES1   0.0000
    61 ****    28.1514   3.7308  51.2320   Du        1 RES1   0.0000
    62 ****    24.7347   4.0016  49.0588   Du        1 RES1   0.0000
@<TRIPOS>BOND
     1     1     2    1
     2     2     3    1
     3     3     4    1
     4     4     5    1
     5     5     6    1
     6     6     7   ar
     7     7     8   ar
     8     8     9   ar
     9     9    10   ar
    10    10    11   ar
    11     6    11   ar
    12    11    12    1
    13    12    13    1
    14    13    14    1
    15    14    15    1
    16    15    16    1
    17     9    17   ar
    18    17    18   ar
    19    18    19   ar
    20    19    20   ar
    21     8    20   ar
    22    20    21    1
    23    21    22    1
    24    22    23   ar
    25    23    24   ar
    26    24    25   ar
    27    25    26   ar
    28    26    27   ar
    29    22    27   ar
    30    26    28    1
    31    28    29    3
    32     1    30    1
    33     1    31    1
    34     1    32    1
    35     3    33    1
    36     3    34    1
    37     4    35    1
    38     4    36    1
    39     7    37    1
    40    10    38    1
    41    13    39    1
    42    13    40    1
    43    14    41    1
    44    14    42    1
    45    16    43    1
    46    16    44    1
    47    16    45    1
    48    18    46    1
    49    21    47    1
    50    23    48    1
    51    24    49    1
    52    25    50    1
    53    27    51    1
    54    29    52    1
    55     2    53    1
    56     2    54    1
    57     5    55    1
    58     5    56    1
    59    12    57    1
    60    12    58    1
    61    15    59    1
    62    15    60    1
    63    17    61    1
    64    19    62    1
@<TRIPOS>SUBSTRUCTURE
     1 RES1        1 GROUP             0 ****  ****    0  
@<TRIPOS>MOLECULE
62.619
    62    64     1     0     0
SMALL
NO_CHARGES
****
Generated from the CSD

@<TRIPOS>ATOM
     1 C       25.7366   8.6042  50.1685   C.3       1 RES1   0.0000
     2 O       26.6199   7.5280  49.8240   O.3       1 RES1   0.0000
     3 C       26.1810   6.8482  48.6383   C.3       1 RES1   0.0000
     4 C       27.0304   5.5778  48.4191   C.3       1 RES1   0.0000
     5 O       27.1863   4.8400  49.6393   O.3       1 RES1   0.0000
     6 C       26.0971   4.0287  49.9450   C.ar      1 RES1   0.0000
     7 C       24.9153   4.1663  49.2153   C.ar      1 RES1   0.0000
     8 C       23.7935   3.3967  49.5339   C.ar      1 RES1   0.0000
     9 C       23.9128   2.4076  50.5111   C.ar      1 RES1   0.0000
    10 C       25.1049   2.2413  51.2169   C.ar      1 RES1   0.0000
    11 C       26.1914   3.0852  50.9700   C.ar      1 RES1   0.0000
    12 O       27.3715   2.9979  51.7142   O.3       1 RES1   0.0000
    13 C       27.4860   1.9832  52.7263   C.3       1 RES1   0.0000
    14 C       28.5713   2.3253  53.7713   C.3       1 RES1   0.0000
    15 O       28.6524   1.2923  54.7635   O.3       1 RES1   0.0000
    16 C       29.2998   0.1201  54.2499   C.3       1 RES1   0.0000
    17 N       22.8712   1.5986  50.7809   N.ar      1 RES1   0.0000
    18 C       21.7163   1.7215  50.1004   C.ar      1 RES1   0.0000
    19 N       21.5612   2.6900  49.1780   N.ar      1 RES1   0.0000
    20 C       22.5514   3.5646  48.9127   C.ar      1 RES1   0.0000
    21 N       22.3083   4.5923  48.0659   N.pl3     1 RES1   0.0000
    22 C       21.5864   4.4164  46.9340   C.ar      1 RES1   0.0000
    23 C       22.1282   4.8057  45.7063   C.ar      1 RES1   0.0000
    24 C       21.3906   4.6641  44.5301   C.ar      1 RES1   0.0000
    25 C       20.1029   4.1296  44.5743   C.ar      1 RES1   0.0000
    26 C       19.5652   3.7190  45.7945   C.ar      1 RES1   0.0000
    27 C       20.3114   3.8435  46.9674   C.ar      1 RES1   0.0000
    28 C       18.2378   3.1627  45.8435   C.1       1 RES1   0.0000
    29 C       17.1281   2.6976  45.8844   C.1       1 RES1   0.0000
    30 H1      24.7209   8.2237  50.3526   H         1 RES1   0.0000
    31 H2      25.7084   9.3515  49.3616   H         1 RES1   0.0000
    32 H3      26.1080   9.0825  51.0864   H         1 RES1   0.0000
    33 H4      25.1239   6.5546  48.7287   H         1 RES1   0.0000
    34 H5      26.3012   7.5113  47.7680   H         1 RES1   0.0000
    35 H6      26.5169   4.9270  47.6954   H         1 RES1   0.0000
    36 H7      28.0110   5.8557  48.0091   H         1 RES1   0.0000
    37 H8      24.8928   4.8788  48.4002   H         1 RES1   0.0000
    38 H9      25.1632   1.4471  51.9497   H         1 RES1   0.0000
    39 H10     26.5253   1.7932  53.2246   H         1 RES1   0.0000
    40 H11     27.7886   1.0557  52.2172   H         1 RES1   0.0000
    41 H12     28.3257   3.2875  54.2443   H         1 RES1   0.0000
    42 H13     29.5376   2.4177  53.2524   H         1 RES1   0.0000
    43 H14     28.7384  -0.2869  53.3957   H         1 RES1   0.0000
    44 H15     29.3332  -0.6368  55.0471   H         1 RES1   0.0000
    45 H16     30.3281   0.3535  53.9352   H         1 RES1   0.0000
    46 H17     20.9018   1.0342  50.2980   H         1 RES1   0.0000
    47 H18     22.6096   5.5428  48.3222   H         1 RES1   0.0000
    48 H19     23.1272   5.2250  45.6607   H         1 RES1   0.0000
    49 H20     21.8178   4.9710  43.5818   H         1 RES1   0.0000
    50 H21     19.5227   4.0323  43.6633   H         1 RES1   0.0000
    51 H22     19.8893   3.4809  47.8975   H         1 RES1   0.0000
    52 H23     16.1548   2.2898  45.9203   H         1 RES1   0.0000
    53 ****    26.6484   6.8756  50.5813   Du        1 RES1   0.0000
    54 ****    27.5361   7.8968  49.6671   Du        1 RES1   0.0000
    55 ****    27.3152   5.4908  50.3876   Du        1 RES1   0.0000
    56 ****    27.9978   4.2615  49.5571   Du        1 RES1   0.0000
    57 ****    27.4968   3.8799  52.1686   Du        1 RES1   0.0000
    58 ****    28.1169   2.8488  51.0645   Du        1 RES1   0.0000
    59 ****    27.7276   1.0505  55.0573   Du        1 RES1   0.0000
    60 ****    29.1722   1.6339  55.5466   Du        1 RES1   0.0000
    61 ****    22.9561   0.9010  51.4923   Du        1 RES1   0.0000
    62 ****    20.6963   2.7615  48.6811   Du        1 RES1   0.0000
@<TRIPOS>BOND
     1     1     2    1
     2     2     3    1
     3     3     4    1
     4     4     5    1
     5     5     6    1
     6     6     7   ar
     7     7     8   ar
     8     8     9   ar
     9     9    10   ar
    10    10    11   ar
    11     6    11   ar
    12    11    12    1
    13    12    13    1
    14    13    14    1
    15    14    15    1
    16    15    16    1
    17     9    17   ar
    18    17    18   ar
    19    18    19   ar
    20    19    20   ar
    21     8    20   ar
    22    20    21    1
    23    21    22    1
    24    22    23   ar
    25    23    24   ar
    26    24    25   ar
    27    25    26   ar
    28    26    27   ar
    29    22    27   ar
    30    26    28    1
    31    28    29    3
    32     1    30    1
    33     1    31    1
    34     1    32    1
    35     3    33    1
    36     3    34    1
    37     4    35    1
    38     4    36    1
    39     7    37    1
    40    10    38    1
    41    13    39    1
    42    13    40    1
    43    14    41    1
    44    14    42    1
    45    16    43    1
    46    16    44    1
    47    16    45    1
    48    18    46    1
    49    21    47    1
    50    23    48    1
    51    24    49    1
    52    25    50    1
    53    27    51    1
    54    29    52    1
    55     2    53    1
    56     2    54    1
    57     5    55    1
    58     5    56    1
    59    12    57    1
    60    12    58    1
    61    15    59    1
    62    15    60    1
    63    17    61    1
    64    19    62    1
@<TRIPOS>SUBSTRUCTURE
     1 RES1        1 GROUP             0 ****  ****    0  
@<TRIPOS>MOLECULE
60.2777
    62    64     1     0     0
SMALL
NO_CHARGES
****
Generated from the CSD

@<TRIPOS>ATOM
     1 C       29.3863   1.9954  54.5875   C.3       1 RES1   0.0000
     2 O       28.6927   1.2036  55.5616   O.3       1 RES1   0.0000
     3 C       27.7593   0.3071  54.9407   C.3       1 RES1   0.0000
     4 C       26.8086   1.0989  54.0173   C.3       1 RES1   0.0000
     5 O       25.5624   0.4106  53.8415   O.3       1 RES1   0.0000
     6 C       24.7320   0.9929  52.8878   C.ar      1 RES1   0.0000
     7 C       25.3001   1.6775  51.8124   C.ar      1 RES1   0.0000
     8 C       24.4877   2.3104  50.8681   C.ar      1 RES1   0.0000
     9 C       23.1047   2.1443  50.9525   C.ar      1 RES1   0.0000
    10 C       22.5345   1.4281  52.0056   C.ar      1 RES1   0.0000
    11 C       23.3449   0.8875  53.0079   C.ar      1 RES1   0.0000
    12 O       22.8010   0.2343  54.1177   O.3       1 RES1   0.0000
    13 C       21.3717   0.1673  54.2580   C.3       1 RES1   0.0000
    14 C       20.8538  -1.2882  54.2351   C.3       1 RES1   0.0000
    15 O       21.4449  -2.0454  55.3006   O.3       1 RES1   0.0000
    16 C       22.8120  -2.3731  55.0167   C.3       1 RES1   0.0000
    17 N       22.3040   2.6760  50.0100   N.ar      1 RES1   0.0000
    18 C       22.8275   3.3529  48.9709   C.ar      1 RES1   0.0000
    19 N       24.1552   3.5594  48.8834   N.ar      1 RES1   0.0000
    20 C       24.9957   3.1008  49.8317   C.ar      1 RES1   0.0000
    21 N       26.3056   3.4350  49.7631   N.pl3     1 RES1   0.0000
    22 C       26.7002   4.6468  49.3058   C.ar      1 RES1   0.0000
    23 C       27.9527   4.7781  48.7006   C.ar      1 RES1   0.0000
    24 C       28.3945   6.0229  48.2506   C.ar      1 RES1   0.0000
    25 C       27.5836   7.1477  48.4024   C.ar      1 RES1   0.0000
    26 C       26.3231   7.0187  48.9863   C.ar      1 RES1   0.0000
    27 C       25.8746   5.7696  49.4186   C.ar      1 RES1   0.0000
    28 C       25.4812   8.1768  49.1410   C.1       1 RES1   0.0000
    29 C       24.7775   9.1451  49.2703   C.1       1 RES1   0.0000
    30 H1      28.6741   2.5983  54.0046   H         1 RES1   0.0000
    31 H2      29.9637   1.3504  53.9085   H         1 RES1   0.0000
    32 H3      30.0769   2.6714  55.1124   H         1 RES1   0.0000
    33 H4      28.2885  -0.4475  54.3387   H         1 RES1   0.0000
    34 H5      27.1633  -0.1986  55.7158   H         1 RES1   0.0000
    35 H6      26.5926   2.0734  54.4805   H         1 RES1   0.0000
    36 H7      27.2943   1.2700  53.0468   H         1 RES1   0.0000
    37 H8      26.3795   1.7024  51.7294   H         1 RES1   0.0000
    38 H9      21.4597   1.3026  52.0209   H         1 RES1   0.0000
    39 H10     21.0261   0.6792  55.1667   H         1 RES1   0.0000
    40 H11     20.9399   0.6925  53.3927   H         1 RES1   0.0000
    41 H12     21.0996  -1.7431  53.2643   H         1 RES1   0.0000
    42 H13     19.7598  -1.2704  54.3554   H         1 RES1   0.0000
    43 H14     22.8803  -2.9817  54.1026   H         1 RES1   0.0000
    44 H15     23.2138  -2.9524  55.8609   H         1 RES1   0.0000
    45 H16     23.4109  -1.4582  54.8937   H         1 RES1   0.0000
    46 H17     22.1733   3.7371  48.1969   H         1 RES1   0.0000
    47 H18     27.0142   2.7885  50.1371   H         1 RES1   0.0000
    48 H19     28.5924   3.9108  48.5800   H         1 RES1   0.0000
    49 H20     29.3691   6.1163  47.7841   H         1 RES1   0.0000
    50 H21     27.9313   8.1185  48.0666   H         1 RES1   0.0000
    51 H22     24.8763   5.6860  49.8322   H         1 RES1   0.0000
    52 H23     24.1603   9.9942  49.3837   H         1 RES1   0.0000
    53 ****    28.1965   1.8117  56.1814   Du        1 RES1   0.0000
    54 ****    29.3597   0.6699  56.0815   Du        1 RES1   0.0000
    55 ****    25.0800   0.4020  54.7174   Du        1 RES1   0.0000
    56 ****    25.7575  -0.5287  53.5592   Du        1 RES1   0.0000
    57 ****    23.1536   0.6967  54.9313   Du        1 RES1   0.0000
    58 ****    23.1376  -0.7071  54.0972   Du        1 RES1   0.0000
    59 ****    20.9268  -2.8917  55.4242   Du        1 RES1   0.0000
    60 ****    21.4080  -1.5061  56.1419   Du        1 RES1   0.0000
    61 ****    21.3125   2.5673  50.0824   Du        1 RES1   0.0000
    62 ****    24.5239   4.0616  48.1013   Du        1 RES1   0.0000
@<TRIPOS>BOND
     1     1     2    1
     2     2     3    1
     3     3     4    1
     4     4     5    1
     5     5     6    1
     6     6     7   ar
     7     7     8   ar
     8     8     9   ar
     9     9    10   ar
    10    10    11   ar
    11     6    11   ar
    12    11    12    1
    13    12    13    1
    14    13    14    1
    15    14    15    1
    16    15    16    1
    17     9    17   ar
    18    17    18   ar
    19    18    19   ar
    20    19    20   ar
    21     8    20   ar
    22    20    21    1
    23    21    22    1
    24    22    23   ar
    25    23    24   ar
    26    24    25   ar
    27    25    26   ar
    28    26    27   ar
    29    22    27   ar
    30    26    28    1
    31    28    29    3
    32     1    30    1
    33     1    31    1
    34     1    32    1
    35     3    33    1
    36     3    34    1
    37     4    35    1
    38     4    36    1
    39     7    37    1
    40    10    38    1
    41    13    39    1
    42    13    40    1
    43    14    41    1
    44    14    42    1
    45    16    43    1
    46    16    44    1
    47    16    45    1
    48    18    46    1
    49    21    47    1
    50    23    48    1
    51    24    49    1
    52    25    50    1
    53    27    51    1
    54    29    52    1
    55     2    53    1
    56     2    54    1
    57     5    55    1
    58     5    56    1
    59    12    57    1
    60    12    58    1
    61    15    59    1
    62    15    60    1
    63    17    61    1
    64    19    62    1
@<TRIPOS>SUBSTRUCTURE
     1 RES1        1 GROUP             0 ****  ****    0  
@<TRIPOS>MOLECULE
56.1609
    62    64     1     0     0
SMALL
NO_CHARGES
****
Generated from the CSD

@<TRIPOS>ATOM
     1 C       31.5156   3.8472  47.2000   C.3       1 RES1   0.0000
     2 O       31.2887   4.7452  48.2950   O.3       1 RES1   0.0000
     3 C       30.3986   5.8089  47.9253   C.3       1 RES1   0.0000
     4 C       28.9617   5.4694  48.3766   C.3       1 RES1   0.0000
     5 O       28.0435   6.5100  48.0137   O.3       1 RES1   0.0000
     6 C       26.9271   6.5842  48.8420   C.ar      1 RES1   0.0000
     7 C       26.4488   5.4231  49.4512   C.ar      1 RES1   0.0000
     8 C       25.3024   5.4636  50.2490   C.ar      1 RES1   0.0000
     9 C       24.7172   6.7008  50.5220   C.ar      1 RES1   0.0000
    10 C       25.2157   7.8693  49.9449   C.ar      1 RES1   0.0000
    11 C       26.2972   7.8109  49.0614   C.ar      1 RES1   0.0000
    12 O       26.7697   8.9507  48.4046   O.3       1 RES1   0.0000
    13 C       26.1030  10.2067  48.6172   C.3       1 RES1   0.0000
    14 C       26.9514  11.4036  48.1330   C.3       1 RES1   0.0000
    15 O       27.7161  11.9455  49.2192   O.3       1 RES1   0.0000
    16 C       28.5145  13.0591  48.7956   C.3       1 RES1   0.0000
    17 N       23.6604   6.7771  51.3523   N.ar      1 RES1   0.0000
    18 C       23.1721   5.6692  51.9406   C.ar      1 RES1   0.0000
    19 N       23.6940   4.4584  51.6674   N.ar      1 RES1   0.0000
    20 C       24.7132   4.3193  50.7970   C.ar      1 RES1   0.0000
    21 N       25.1247   3.0735  50.4638   N.pl3     1 RES1   0.0000
    22 C       25.1303   2.0678  51.3704   C.ar      1 RES1   0.0000
    23 C       23.9453   1.7304  52.0294   C.ar      1 RES1   0.0000
    24 C       23.9332   0.7193  52.9911   C.ar      1 RES1   0.0000
    25 C       25.1096   0.0362  53.3000   C.ar      1 RES1   0.0000
    26 C       26.2911   0.3540  52.6296   C.ar      1 RES1   0.0000
    27 C       26.2976   1.3525  51.6543   C.ar      1 RES1   0.0000
    28 C       27.5067  -0.3518  52.9426   C.1       1 RES1   0.0000
    29 C       28.5229  -0.9420  53.2045   C.1       1 RES1   0.0000
    30 H1      31.9631   4.3832  46.3498   H         1 RES1   0.0000
    31 H2      30.5709   3.3802  46.8838   H         1 RES1   0.0000
    32 H3      32.2107   3.0612  47.5292   H         1 RES1   0.0000
    33 H4      30.7041   6.7531  48.4015   H         1 RES1   0.0000
    34 H5      30.4080   5.9334  46.8316   H         1 RES1   0.0000
    35 H6      28.6396   4.5454  47.8732   H         1 RES1   0.0000
    36 H7      28.9456   5.3029  49.4625   H         1 RES1   0.0000
    37 H8      26.9879   4.4976  49.2918   H         1 RES1   0.0000
    38 H9      24.7477   8.8108  50.2015   H         1 RES1   0.0000
    39 H10     25.1114  10.2278  48.1441   H         1 RES1   0.0000
    40 H11     25.9586  10.3129  49.7030   H         1 RES1   0.0000
    41 H12     26.2847  12.1733  47.7171   H         1 RES1   0.0000
    42 H13     27.6300  11.0517  47.3411   H         1 RES1   0.0000
    43 H14     29.2250  12.7487  48.0150   H         1 RES1   0.0000
    44 H15     29.0788  13.4327  49.6625   H         1 RES1   0.0000
    45 H16     27.8755  13.8675  48.4095   H         1 RES1   0.0000
    46 H17     22.3490   5.7524  52.6410   H         1 RES1   0.0000
    47 H18     25.3651   2.8635  49.4851   H         1 RES1   0.0000
    48 H19     23.0256   2.2568  51.7991   H         1 RES1   0.0000
    49 H20     23.0096   0.4654  53.4995   H         1 RES1   0.0000
    50 H21     25.1052  -0.7399  54.0574   H         1 RES1   0.0000
    51 H22     27.2176   1.5548  51.1181   H         1 RES1   0.0000
    52 H23     29.4141  -1.4595  53.4341   H         1 RES1   0.0000
    53 ****    32.1632   5.1373  48.5805   Du        1 RES1   0.0000
    54 ****    30.8876   4.2352  49.0560   Du        1 RES1   0.0000
    55 ****    27.7321   6.3442  47.0780   Du        1 RES1   0.0000
    56 ****    28.5258   7.3850  48.0544   Du        1 RES1   0.0000
    57 ****    26.7301   8.7607  47.4236   Du        1 RES1   0.0000
    58 ****    27.7225   9.0745  48.6819   Du        1 RES1   0.0000
    59 ****    28.3177  11.2330  49.5803   Du        1 RES1   0.0000
    60 ****    27.0903  12.2490  49.9377   Du        1 RES1   0.0000
    61 ****    23.2348   7.6637  51.5335   Du        1 RES1   0.0000
    62 ****    23.3187   3.6485  52.1182   Du        1 RES1   0.0000
@<TRIPOS>BOND
     1     1     2    1
     2     2     3    1
     3     3     4    1
     4     4     5    1
     5     5     6    1
     6     6     7   ar
     7     7     8   ar
     8     8     9   ar
     9     9    10   ar
    10    10    11   ar
    11     6    11   ar
    12    11    12    1
    13    12    13    1
    14    13    14    1
    15    14    15    1
    16    15    16    1
    17     9    17   ar
    18    17    18   ar
    19    18    19   ar
    20    19    20   ar
    21     8    20   ar
    22    20    21    1
    23    21    22    1
    24    22    23   ar
    25    23    24   ar
    26    24    25   ar
    27    25    26   ar
    28    26    27   ar
    29    22    27   ar
    30    26    28    1
    31    28    29    3
    32     1    30    1
    33     1    31    1
    34     1    32    1
    35     3    33    1
    36     3    34    1
    37     4    35    1
    38     4    36    1
    39     7    37    1
    40    10    38    1
    41    13    39    1
    42    13    40    1
    43    14    41    1
    44    14    42    1
    45    16    43    1
    46    16    44    1
    47    16    45    1
    48    18    46    1
    49    21    47    1
    50    23    48    1
    51    24    49    1
    52    25    50    1
    53    27    51    1
    54    29    52    1
    55     2    53    1
    56     2    54    1
    57     5    55    1
    58     5    56    1
    59    12    57    1
    60    12    58    1
    61    15    59    1
    62    15    60    1
    63    17    61    1
    64    19    62    1
@<TRIPOS>SUBSTRUCTURE
     1 RES1        1 GROUP             0 ****  ****    0  
@<TRIPOS>MOLECULE
55.2916
    62    64     1     0     0
SMALL
NO_CHARGES
****
Generated from the CSD

@<TRIPOS>ATOM
     1 C       31.7762   3.6098  47.1942   C.3       1 RES1   0.0000
     2 O       31.4555   4.5292  48.2471   O.3       1 RES1   0.0000
     3 C       30.6097   5.5899  47.7779   C.3       1 RES1   0.0000
     4 C       29.1719   5.3826  48.3006   C.3       1 RES1   0.0000
     5 O       28.2932   6.4125  47.8264   O.3       1 RES1   0.0000
     6 C       27.1439   6.5652  48.5972   C.ar      1 RES1   0.0000
     7 C       26.6145   5.4586  49.2629   C.ar      1 RES1   0.0000
     8 C       25.4360   5.5762  50.0041   C.ar      1 RES1   0.0000
     9 C       24.8667   6.8402  50.1650   C.ar      1 RES1   0.0000
    10 C       25.4151   7.9560  49.5318   C.ar      1 RES1   0.0000
    11 C       26.5321   7.8158  48.7034   C.ar      1 RES1   0.0000
    12 O       27.0573   8.8981  47.9914   O.3       1 RES1   0.0000
    13 C       26.5727  10.2219  48.2741   C.3       1 RES1   0.0000
    14 C       27.6785  11.2899  48.1209   C.3       1 RES1   0.0000
    15 O       27.4205  12.4037  48.9876   O.3       1 RES1   0.0000
    16 C       28.3013  13.5009  48.7095   C.3       1 RES1   0.0000
    17 N       23.7770   6.9940  50.9403   N.ar      1 RES1   0.0000
    18 C       23.2397   5.9392  51.5811   C.ar      1 RES1   0.0000
    19 N       23.7463   4.7027  51.4153   N.ar      1 RES1   0.0000
    20 C       24.7988   4.4841  50.6027   C.ar      1 RES1   0.0000
    21 N       25.1970   3.2106  50.3748   N.pl3     1 RES1   0.0000
    22 C       25.5161   2.3793  51.3948   C.ar      1 RES1   0.0000
    23 C       24.6027   1.4006  51.7947   C.ar      1 RES1   0.0000
    24 C       24.8958   0.5534  52.8643   C.ar      1 RES1   0.0000
    25 C       26.1085   0.6793  53.5420   C.ar      1 RES1   0.0000
    26 C       27.0335   1.6404  53.1331   C.ar      1 RES1   0.0000
    27 C       26.7470   2.4743  52.0511   C.ar      1 RES1   0.0000
    28 C       28.2884   1.7707  53.8275   C.1       1 RES1   0.0000
    29 C       29.3374   1.8796  54.4081   C.1       1 RES1   0.0000
    30 H1      32.3032   4.1277  46.3790   H         1 RES1   0.0000
    31 H2      30.8616   3.1413  46.8012   H         1 RES1   0.0000
    32 H3      32.4332   2.8269  47.6002   H         1 RES1   0.0000
    33 H4      30.9772   6.5647  48.1334   H         1 RES1   0.0000
    34 H5      30.5921   5.5871  46.6773   H         1 RES1   0.0000
    35 H6      28.7933   4.4190  47.9279   H         1 RES1   0.0000
    36 H7      29.1785   5.3575  49.3989   H         1 RES1   0.0000
    37 H8      27.1397   4.5143  49.1916   H         1 RES1   0.0000
    38 H9      24.9572   8.9217  49.7018   H         1 RES1   0.0000
    39 H10     25.7055  10.4809  47.6510   H         1 RES1   0.0000
    40 H11     26.2439  10.2251  49.3243   H         1 RES1   0.0000
    41 H12     27.7144  11.6242  47.0737   H         1 RES1   0.0000
    42 H13     28.6442  10.8315  48.3837   H         1 RES1   0.0000
    43 H14     29.3491  13.2015  48.8607   H         1 RES1   0.0000
    44 H15     28.0626  14.3227  49.4003   H         1 RES1   0.0000
    45 H16     28.1658  13.8522  47.6755   H         1 RES1   0.0000
    46 H17     22.3892   6.0864  52.2367   H         1 RES1   0.0000
    47 H18     25.1839   2.8393  49.4147   H         1 RES1   0.0000
    48 H19     23.6558   1.2957  51.2768   H         1 RES1   0.0000
    49 H20     24.1801  -0.2020  53.1697   H         1 RES1   0.0000
    50 H21     26.3318   0.0316  54.3825   H         1 RES1   0.0000
    51 H22     27.4968   3.1862  51.7257   H         1 RES1   0.0000
    52 H23     30.2575   1.9751  54.9173   H         1 RES1   0.0000
    53 ****    32.3025   4.9226  48.6046   Du        1 RES1   0.0000
    54 ****    30.9831   4.0355  48.9773   Du        1 RES1   0.0000
    55 ****    28.0188   6.1878  46.8914   Du        1 RES1   0.0000
    56 ****    28.7922   7.2790  47.8283   Du        1 RES1   0.0000
    57 ****    26.8828   8.7232  47.0224   Du        1 RES1   0.0000
    58 ****    28.0436   8.9060  48.1563   Du        1 RES1   0.0000
    59 ****    27.5510  12.1145  49.9360   Du        1 RES1   0.0000
    60 ****    26.4757  12.7044  48.8578   Du        1 RES1   0.0000
    61 ****    23.3635   7.8989  51.0409   Du        1 RES1   0.0000
    62 ****    23.3344   3.9334  51.9036   Du        1 RES1   0.0000
@<TRIPOS>BOND
     1     1     2    1
     2     2     3    1
     3     3     4    1
     4     4     5    1
     5     5     6    1
     6     6     7   ar
     7     7     8   ar
     8     8     9   ar
     9     9    10   ar
    10    10    11   ar
    11     6    11   ar
    12    11    12    1
    13    12    13    1
    14    13    14    1
    15    14    15    1
    16    15    16    1
    17     9    17   ar
    18    17    18   ar
    19    18    19   ar
    20    19    20   ar
    21     8    20   ar
    22    20    21    1
    23    21    22    1
    24    22    23   ar
    25    23    24   ar
    26    24    25   ar
    27    25    26   ar
    28    26    27   ar
    29    22    27   ar
    30    26    28    1
    31    28    29    3
    32     1    30    1
    33     1    31    1
    34     1    32    1
    35     3    33    1
    36     3    34    1
    37     4    35    1
    38     4    36    1
    39     7    37    1
    40    10    38    1
    41    13    39    1
    42    13    40    1
    43    14    41    1
    44    14    42    1
    45    16    43    1
    46    16    44    1
    47    16    45    1
    48    18    46    1
    49    21    47    1
    50    23    48    1
    51    24    49    1
    52    25    50    1
    53    27    51    1
    54    29    52    1
    55     2    53    1
    56     2    54    1
    57     5    55    1
    58     5    56    1
    59    12    57    1
    60    12    58    1
    61    15    59    1
    62    15    60    1
    63    17    61    1
    64    19    62    1
@<TRIPOS>SUBSTRUCTURE
     1 RES1        1 GROUP             0 ****  ****    0  
