@<TRIPOS>MOLECULE
A:LZ11301
    15    16     1     0     0
SMALL
NO_CHARGES
****
Generated from the CSD

@<TRIPOS>ATOM
     1 C1     105.3810 100.8600  81.2970   C.ar      1 LZ11301   0.0000
     2 C2     104.1530 100.9800  80.6310   C.ar      1 LZ11301   0.0000
     3 C3     103.0640 100.2600  81.1160   C.ar      1 LZ11301   0.0000
     4 C4     103.1960  99.4390  82.2220   C.ar      1 LZ11301   0.0000
     5 C5     104.4150  99.3230  82.8650   C.ar      1 LZ11301   0.0000
     6 C6     105.5080 100.0280  82.4030   C.ar      1 LZ11301   0.0000
     7 N      106.2630 101.6610  80.6190   N.pl3     1 LZ11301   0.0000
     8 C9     104.3850 101.8860  79.5670   C.2       1 LZ11301   0.0000
     9 N2     105.6650 102.2800  79.5670   N.2       1 LZ11301   0.0000
    10 H1     102.3354  98.8812  82.5881   H         1 LZ11301   0.0000
    11 H2     107.2394 101.7772  80.8708   H         1 LZ11301   0.0000
    12 H3     104.5124  98.6758  83.7354   H         1 LZ11301   0.0000
    13 H4     106.4697  99.9323  82.9050   H         1 LZ11301   0.0000
    14 H5     103.6317 102.2145  78.8525   H         1 LZ11301   0.0000
    15 H6     102.0984 100.3440  80.6196   H         1 LZ11301   0.0000
@<TRIPOS>BOND
     1     1     2   ar
     2     1     6   ar
     3     1     7    1
     4     2     3   ar
     5     2     8    1
     6     3     4   ar
     7     4     5   ar
     8     5     6   ar
     9     7     9    1
    10     8     9    2
    11     4    10    1
    12     7    11    1
    13     5    12    1
    14     6    13    1
    15     8    14    1
    16     3    15    1
@<TRIPOS>SUBSTRUCTURE
     1 LZ11301     1 GROUP             0 A     LZ1     0  
