@<TRIPOS>MOLECULE
58.8541
    70    72     1     0     0
SMALL
NO_CHARGES
****
Generated from the CSD

@<TRIPOS>ATOM
     1 C       95.1181  90.5973  83.2533   C.ar      1 RES1   0.0000
     2 N       93.7667  90.6180  83.1882   N.ar      1 RES1   0.0000
     3 C       93.0770  91.7775  83.1507   C.ar      1 RES1   0.0000
     4 C       93.8165  92.9566  83.1822   C.ar      1 RES1   0.0000
     5 C       95.1998  92.9051  83.2529   C.ar      1 RES1   0.0000
     6 N       95.8516  91.7305  83.2864   N.ar      1 RES1   0.0000
     7 N       95.6283  94.1788  83.2749   N.ar      1 RES1   0.0000
     8 C       94.5665  95.0078  83.2083   C.ar      1 RES1   0.0000
     9 N       93.4504  94.2514  83.1566   N.ar      1 RES1   0.0000
    10 C       96.9299  94.5772  83.3284   C.3       1 RES1   0.0000
    11 C       97.9062  93.4715  82.8674   C.3       1 RES1   0.0000
    12 C       98.9100  94.2130  81.9580   C.3       1 RES1   0.0000
    13 C       98.5858  95.6979  82.2163   C.3       1 RES1   0.0000
    14 O       97.1721  95.6554  82.4203   O.3       1 RES1   0.0000
    15 C       98.9348  96.6152  81.0278   C.3       1 RES1   0.0000
    16 O       97.7183  97.1001  80.4527   O.3       1 RES1   0.0000
    17 P       97.7445  98.1929  79.2849   P.3       1 RES1   0.0000
    18 O       99.1102  98.7793  79.1804   O.2       1 RES1   0.0000
    19 O       97.3542  97.5011  77.8962   O.3       1 RES1   0.0000
    20 O       96.6840  99.3428  79.6277   O.3       1 RES1   0.0000
    21 P       95.2200  98.7329  79.8535   P.3       1 RES1   0.0000
    22 O       95.2780  97.7509  80.9726   O.2       1 RES1   0.0000
    23 O       94.7391  97.9799  78.5254   O.3       1 RES1   0.0000
    24 O       94.1932  99.9062  80.2204   O.3       1 RES1   0.0000
    25 P       92.8374  99.3349  80.8520   P.3       1 RES1   0.0000
    26 O       92.2120  98.3556  79.9193   O.2       1 RES1   0.0000
    27 O       91.8179 100.5442  81.0923   O.3       1 RES1   0.0000
    28 O       93.1477  98.6195  82.2490   O.3       1 RES1   0.0000
    29 O      100.2635  93.8863  82.2949   O.3       1 RES1   0.0000
    30 O       98.5732  92.8867  83.9923   O.3       1 RES1   0.0000
    31 N       91.7284  91.7977  83.0854   N.pl3     1 RES1   0.0000
    32 H1      95.6278  89.6411  83.2796   H         1 RES1   0.0000
    33 H2      94.6012  96.0913  83.1981   H         1 RES1   0.0000
    34 H3      97.2027  94.9104  84.3417   H         1 RES1   0.0000
    35 H4      97.3858  92.6940  82.2863   H         1 RES1   0.0000
    36 H5      98.6929  93.9630  80.9077   H         1 RES1   0.0000
    37 H6      99.0877  96.0371  83.1357   H         1 RES1   0.0000
    38 H7      99.5496  97.4645  81.3606   H         1 RES1   0.0000
    39 H8      99.4868  96.0360  80.2724   H         1 RES1   0.0000
    40 H9      98.1326  97.4063  77.3600   H         1 RES1   0.0000
    41 H10     94.4597  98.6153  77.8770   H         1 RES1   0.0000
    42 H11     90.9340 100.2046  81.1692   H         1 RES1   0.0000
    43 H12     92.4365  98.0292  82.4680   H         1 RES1   0.0000
    44 H13    100.7768  94.6764  82.4178   H         1 RES1   0.0000
    45 H14     98.0608  93.0121  84.7831   H         1 RES1   0.0000
    46 H15     91.2020  90.9127  83.0632   H         1 RES1   0.0000
    47 H16     91.2247  92.6961  83.0584   H         1 RES1   0.0000
    48 ****    93.2664  89.7525  83.1674   Du        1 RES1   0.0000
    49 ****    96.8499  91.6967  83.3345   Du        1 RES1   0.0000
    50 ****    92.5122  94.5941  83.1076   Du        1 RES1   0.0000
    51 ****    96.7019  95.4902  81.5534   Du        1 RES1   0.0000
    52 ****    96.8529  96.5177  82.8136   Du        1 RES1   0.0000
    53 ****    99.7275  98.4823  78.4518   Du        1 RES1   0.0000
    54 ****    99.4096  99.4699  79.8388   Du        1 RES1   0.0000
    55 ****    96.6862  98.0701  77.4165   Du        1 RES1   0.0000
    56 ****    96.9588  96.5997  78.0723   Du        1 RES1   0.0000
    57 ****    96.0750  97.1556  81.0746   Du        1 RES1   0.0000
    58 ****    94.5199  97.6871  81.6216   Du        1 RES1   0.0000
    59 ****    93.9752  97.3735  78.7462   Du        1 RES1   0.0000
    60 ****    95.4966  97.4411  78.1569   Du        1 RES1   0.0000
    61 ****    91.2193  98.3429  79.7994   Du        1 RES1   0.0000
    62 ****    92.7850  97.7110  79.4132   Du        1 RES1   0.0000
    63 ****    91.8651 101.1779  80.3202   Du        1 RES1   0.0000
    64 ****    92.0642 101.0251  81.9337   Du        1 RES1   0.0000
    65 ****    93.2385  99.3118  82.9649   Du        1 RES1   0.0000
    66 ****    94.0000  98.1016  82.1760   Du        1 RES1   0.0000
    67 ****   100.6648  93.3450  81.5560   Du        1 RES1   0.0000
    68 ****   100.2723  93.3534  83.1411   Du        1 RES1   0.0000
    69 ****    99.4673  93.3196  84.1069   Du        1 RES1   0.0000
    70 ****    98.6952  91.9075  83.8305   Du        1 RES1   0.0000
@<TRIPOS>BOND
     1     1     2   ar
     2     2     3   ar
     3     3     4   ar
     4     4     5   ar
     5     5     6   ar
     6     1     6   ar
     7     5     7   ar
     8     7     8   ar
     9     8     9   ar
    10     4     9   ar
    11     7    10    1
    12    10    11    1
    13    11    12    1
    14    12    13    1
    15    13    14    1
    16    10    14    1
    17    13    15    1
    18    15    16    1
    19    16    17    1
    20    17    18    2
    21    17    19    1
    22    17    20    1
    23    20    21    1
    24    21    22    2
    25    21    23    1
    26    21    24    1
    27    24    25    1
    28    25    26    2
    29    25    27    1
    30    25    28    1
    31    12    29    1
    32    11    30    1
    33     3    31    1
    34     1    32    1
    35     8    33    1
    36    10    34    1
    37    11    35    1
    38    12    36    1
    39    13    37    1
    40    15    38    1
    41    15    39    1
    42    19    40    1
    43    23    41    1
    44    27    42    1
    45    28    43    1
    46    29    44    1
    47    30    45    1
    48    31    46    1
    49    31    47    1
    50     2    48    1
    51     6    49    1
    52     9    50    1
    53    14    51    1
    54    14    52    1
    55    18    53    1
    56    18    54    1
    57    19    55    1
    58    19    56    1
    59    22    57    1
    60    22    58    1
    61    23    59    1
    62    23    60    1
    63    26    61    1
    64    26    62    1
    65    27    63    1
    66    27    64    1
    67    28    65    1
    68    28    66    1
    69    29    67    1
    70    29    68    1
    71    30    69    1
    72    30    70    1
@<TRIPOS>SUBSTRUCTURE
     1 RES1        1 GROUP             0 ****  ****    0  
@<TRIPOS>MOLECULE
58.8118
    70    72     1     0     0
SMALL
NO_CHARGES
****
Generated from the CSD

@<TRIPOS>ATOM
     1 C       96.0870  91.2839  84.4712   C.ar      1 RES1   0.0000
     2 N       94.7454  91.1177  84.4131   N.ar      1 RES1   0.0000
     3 C       93.9253  92.1107  84.0096   C.ar      1 RES1   0.0000
     4 C       94.5191  93.3188  83.6545   C.ar      1 RES1   0.0000
     5 C       95.8958  93.4618  83.7276   C.ar      1 RES1   0.0000
     6 N       96.6803  92.4487  84.1324   N.ar      1 RES1   0.0000
     7 N       96.1702  94.7178  83.3353   N.ar      1 RES1   0.0000
     8 C       95.0207  95.3456  83.0135   C.ar      1 RES1   0.0000
     9 N       94.0039  94.4823  83.2163   N.ar      1 RES1   0.0000
    10 C       97.4133  95.2680  83.2481   C.3       1 RES1   0.0000
    11 C       98.2975  94.5671  82.1921   C.3       1 RES1   0.0000
    12 C       98.9788  95.7315  81.4409   C.3       1 RES1   0.0000
    13 C       98.6460  96.9557  82.3168   C.3       1 RES1   0.0000
    14 O       97.3416  96.6234  82.7969   O.3       1 RES1   0.0000
    15 C       98.6126  98.2799  81.5288   C.3       1 RES1   0.0000
    16 O       97.9463  98.0536  80.2835   O.3       1 RES1   0.0000
    17 P       97.0693  99.2059  79.6040   P.3       1 RES1   0.0000
    18 O       95.8982  99.5186  80.4705   O.2       1 RES1   0.0000
    19 O       97.9626 100.5204  79.4211   O.3       1 RES1   0.0000
    20 O       96.5653  98.6967  78.1719   O.3       1 RES1   0.0000
    21 P       96.6871  99.8527  77.0696   P.3       1 RES1   0.0000
    22 O       95.7992  99.5149  75.9217   O.2       1 RES1   0.0000
    23 O       98.1980  99.9439  76.5489   O.3       1 RES1   0.0000
    24 O       96.2396 101.2551  77.7010   O.3       1 RES1   0.0000
    25 P       96.4801 102.4692  76.6853   P.3       1 RES1   0.0000
    26 O       95.6396 102.2912  75.4680   O.2       1 RES1   0.0000
    27 O       98.0198 102.4957  76.2515   O.3       1 RES1   0.0000
    28 O       96.1069 103.8537  77.3949   O.3       1 RES1   0.0000
    29 O      100.3903  95.5208  81.3162   O.3       1 RES1   0.0000
    30 O       99.2720  93.7299  82.8260   O.3       1 RES1   0.0000
    31 N       92.5865  91.9442  83.9515   N.pl3     1 RES1   0.0000
    32 H1      96.7048  90.4563  84.8000   H         1 RES1   0.0000
    33 H2      94.9277  96.3645  82.6550   H         1 RES1   0.0000
    34 H3      97.9238  95.2546  84.2235   H         1 RES1   0.0000
    35 H4      97.6896  93.9782  81.4874   H         1 RES1   0.0000
    36 H5      98.5072  95.8434  80.4520   H         1 RES1   0.0000
    37 H6      99.3517  97.0171  83.1597   H         1 RES1   0.0000
    38 H7      98.0790  99.0562  82.0968   H         1 RES1   0.0000
    39 H8      99.6434  98.6115  81.3328   H         1 RES1   0.0000
    40 H9      97.4591 101.2837  79.6784   H         1 RES1   0.0000
    41 H10     98.2496 100.5383  75.8098   H         1 RES1   0.0000
    42 H11     98.3498 103.3850  76.3041   H         1 RES1   0.0000
    43 H12     96.0204 103.7173  78.3308   H         1 RES1   0.0000
    44 H13    100.6739  95.6803  80.4235   H         1 RES1   0.0000
    45 H14     99.8360  94.2469  83.3902   H         1 RES1   0.0000
    46 H15     92.1692  91.0414  84.2192   H         1 RES1   0.0000
    47 H16     91.9815  92.7180  83.6406   H         1 RES1   0.0000
    48 ****    94.3516  90.2368  84.6757   Du        1 RES1   0.0000
    49 ****    97.6735  92.5541  84.1813   Du        1 RES1   0.0000
    50 ****    93.0339  94.6740  83.0667   Du        1 RES1   0.0000
    51 ****    96.6698  96.7084  82.0611   Du        1 RES1   0.0000
    52 ****    97.0867  97.2269  83.5524   Du        1 RES1   0.0000
    53 ****    95.2606  98.7934  80.7303   Du        1 RES1   0.0000
    54 ****    95.7498 100.4538  80.7922   Du        1 RES1   0.0000
    55 ****    98.2346 100.6080  78.4628   Du        1 RES1   0.0000
    56 ****    98.7791 100.4509  79.9943   Du        1 RES1   0.0000
    57 ****    95.2835 100.2361  75.4593   Du        1 RES1   0.0000
    58 ****    95.7190  98.5669  75.6137   Du        1 RES1   0.0000
    59 ****    98.5068  99.0358  76.2664   Du        1 RES1   0.0000
    60 ****    98.7832 100.2805  77.2866   Du        1 RES1   0.0000
    61 ****    95.0682 103.0437  75.1405   Du        1 RES1   0.0000
    62 ****    95.6468 101.4193  74.9784   Du        1 RES1   0.0000
    63 ****    98.1069 102.1632  75.3125   Du        1 RES1   0.0000
    64 ****    98.5484 101.9076  76.8637   Du        1 RES1   0.0000
    65 ****    95.2418 104.1943  77.0265   Du        1 RES1   0.0000
    66 ****    96.8296 104.5226  77.2210   Du        1 RES1   0.0000
    67 ****   100.6052  94.5766  81.5659   Du        1 RES1   0.0000
    68 ****   100.8716  96.1458  81.9308   Du        1 RES1   0.0000
    69 ****    99.8277  93.2823  82.1254   Du        1 RES1   0.0000
    70 ****    98.8043  93.0363  83.3738   Du        1 RES1   0.0000
@<TRIPOS>BOND
     1     1     2   ar
     2     2     3   ar
     3     3     4   ar
     4     4     5   ar
     5     5     6   ar
     6     1     6   ar
     7     5     7   ar
     8     7     8   ar
     9     8     9   ar
    10     4     9   ar
    11     7    10    1
    12    10    11    1
    13    11    12    1
    14    12    13    1
    15    13    14    1
    16    10    14    1
    17    13    15    1
    18    15    16    1
    19    16    17    1
    20    17    18    2
    21    17    19    1
    22    17    20    1
    23    20    21    1
    24    21    22    2
    25    21    23    1
    26    21    24    1
    27    24    25    1
    28    25    26    2
    29    25    27    1
    30    25    28    1
    31    12    29    1
    32    11    30    1
    33     3    31    1
    34     1    32    1
    35     8    33    1
    36    10    34    1
    37    11    35    1
    38    12    36    1
    39    13    37    1
    40    15    38    1
    41    15    39    1
    42    19    40    1
    43    23    41    1
    44    27    42    1
    45    28    43    1
    46    29    44    1
    47    30    45    1
    48    31    46    1
    49    31    47    1
    50     2    48    1
    51     6    49    1
    52     9    50    1
    53    14    51    1
    54    14    52    1
    55    18    53    1
    56    18    54    1
    57    19    55    1
    58    19    56    1
    59    22    57    1
    60    22    58    1
    61    23    59    1
    62    23    60    1
    63    26    61    1
    64    26    62    1
    65    27    63    1
    66    27    64    1
    67    28    65    1
    68    28    66    1
    69    29    67    1
    70    29    68    1
    71    30    69    1
    72    30    70    1
@<TRIPOS>SUBSTRUCTURE
     1 RES1        1 GROUP             0 ****  ****    0  
@<TRIPOS>MOLECULE
57.5218
    70    72     1     0     0
SMALL
NO_CHARGES
****
Generated from the CSD

@<TRIPOS>ATOM
     1 C       95.4818  90.6316  83.3618   C.ar      1 RES1   0.0000
     2 N       94.1425  90.5892  83.1736   N.ar      1 RES1   0.0000
     3 C       93.4163  91.7127  82.9956   C.ar      1 RES1   0.0000
     4 C       94.1048  92.9226  83.0141   C.ar      1 RES1   0.0000
     5 C       95.4765  92.9360  83.2128   C.ar      1 RES1   0.0000
     6 N       96.1660  91.7955  83.3845   N.ar      1 RES1   0.0000
     7 N       95.8530  94.2260  83.1873   N.ar      1 RES1   0.0000
     8 C       94.7716  95.0019  82.9691   C.ar      1 RES1   0.0000
     9 N       93.6944  94.1959  82.8679   N.ar      1 RES1   0.0000
    10 C       97.1281  94.6833  83.3312   C.3       1 RES1   0.0000
    11 C       98.1802  93.6709  82.8250   C.3       1 RES1   0.0000
    12 C       99.1784  94.5357  82.0251   C.3       1 RES1   0.0000
    13 C       98.7647  95.9754  82.3896   C.3       1 RES1   0.0000
    14 O       97.3483  95.8450  82.5263   O.3       1 RES1   0.0000
    15 C       99.1114  97.0059  81.2971   C.3       1 RES1   0.0000
    16 O       97.8943  97.5593  80.7887   O.3       1 RES1   0.0000
    17 P       97.8442  98.2293  79.3370   P.3       1 RES1   0.0000
    18 O       98.9365  99.2352  79.2134   O.2       1 RES1   0.0000
    19 O       98.0316  97.0996  78.2199   O.3       1 RES1   0.0000
    20 O       96.4237  98.9431  79.1448   O.3       1 RES1   0.0000
    21 P       95.7856  98.5899  77.7185   P.3       1 RES1   0.0000
    22 O       95.5667  97.1180  77.6433   O.2       1 RES1   0.0000
    23 O       96.7937  99.0258  76.5541   O.3       1 RES1   0.0000
    24 O       94.3868  99.3511  77.5455   O.3       1 RES1   0.0000
    25 P       94.2596 100.5968  78.5433   P.3       1 RES1   0.0000
    26 O       94.3645 100.1333  79.9555   O.2       1 RES1   0.0000
    27 O       92.8365 101.2967  78.3329   O.3       1 RES1   0.0000
    28 O       95.4197 101.6563  78.2409   O.3       1 RES1   0.0000
    29 O      100.5329  94.2502  82.3940   O.3       1 RES1   0.0000
    30 O       98.8319  93.0277  83.9268   O.3       1 RES1   0.0000
    31 N       92.0798  91.6699  82.8074   N.pl3     1 RES1   0.0000
    32 H1      96.0224  89.7021  83.4987   H         1 RES1   0.0000
    33 H2      94.7665  96.0831  82.8888   H         1 RES1   0.0000
    34 H3      97.3417  94.9433  84.3796   H         1 RES1   0.0000
    35 H4      97.7261  92.9199  82.1596   H         1 RES1   0.0000
    36 H5      99.0174  94.3645  80.9492   H         1 RES1   0.0000
    37 H6      99.2102  96.2608  83.3552   H         1 RES1   0.0000
    38 H7      99.7391  97.8105  81.7077   H         1 RES1   0.0000
    39 H8      99.6489  96.5016  80.4800   H         1 RES1   0.0000
    40 H9      98.4152  97.4851  77.4410   H         1 RES1   0.0000
    41 H10     97.5876  98.5065  76.6031   H         1 RES1   0.0000
    42 H11     92.1456 100.6940  78.5820   H         1 RES1   0.0000
    43 H12     95.8649 101.8788  79.0498   H         1 RES1   0.0000
    44 H13    101.1299  94.5180  81.7050   H         1 RES1   0.0000
    45 H14     98.5847  93.4423  84.7456   H         1 RES1   0.0000
    46 H15     91.5914  90.7632  82.7976   H         1 RES1   0.0000
    47 H16     91.5474  92.5420  82.6743   H         1 RES1   0.0000
    48 ****    93.6792  89.7031  83.1662   Du        1 RES1   0.0000
    49 ****    97.1561  91.8083  83.5248   Du        1 RES1   0.0000
    50 ****    92.7526  94.4935  82.7112   Du        1 RES1   0.0000
    51 ****    96.9229  95.7300  81.6286   Du        1 RES1   0.0000
    52 ****    96.9677  96.6539  82.9743   Du        1 RES1   0.0000
    53 ****    99.4204  99.5507  80.0296   Du        1 RES1   0.0000
    54 ****    99.1857  99.5947  78.3141   Du        1 RES1   0.0000
    55 ****    97.1414  96.7047  77.9926   Du        1 RES1   0.0000
    56 ****    98.6350  96.3826  78.5688   Du        1 RES1   0.0000
    57 ****    95.8197  96.6165  76.8160   Du        1 RES1   0.0000
    58 ****    95.1668  96.6317  78.4202   Du        1 RES1   0.0000
    59 ****    97.0233  99.9934  76.6592   Du        1 RES1   0.0000
    60 ****    96.3571  98.8814  75.6662   Du        1 RES1   0.0000
    61 ****    94.2211  99.1688  80.1771   Du        1 RES1   0.0000
    62 ****    94.5784 100.7867  80.6816   Du        1 RES1   0.0000
    63 ****    92.7281 101.5484  77.3712   Du        1 RES1   0.0000
    64 ****    92.7823 102.1182  78.9006   Du        1 RES1   0.0000
    65 ****    95.0210 102.4821  77.8420   Du        1 RES1   0.0000
    66 ****    96.0748 101.2586  77.5985   Du        1 RES1   0.0000
    67 ****   100.6309  93.2674  82.5504   Du        1 RES1   0.0000
    68 ****   100.7563  94.7453  83.2336   Du        1 RES1   0.0000
    69 ****    99.8226  93.0955  83.8089   Du        1 RES1   0.0000
    70 ****    98.5643  92.0644  83.9512   Du        1 RES1   0.0000
@<TRIPOS>BOND
     1     1     2   ar
     2     2     3   ar
     3     3     4   ar
     4     4     5   ar
     5     5     6   ar
     6     1     6   ar
     7     5     7   ar
     8     7     8   ar
     9     8     9   ar
    10     4     9   ar
    11     7    10    1
    12    10    11    1
    13    11    12    1
    14    12    13    1
    15    13    14    1
    16    10    14    1
    17    13    15    1
    18    15    16    1
    19    16    17    1
    20    17    18    2
    21    17    19    1
    22    17    20    1
    23    20    21    1
    24    21    22    2
    25    21    23    1
    26    21    24    1
    27    24    25    1
    28    25    26    2
    29    25    27    1
    30    25    28    1
    31    12    29    1
    32    11    30    1
    33     3    31    1
    34     1    32    1
    35     8    33    1
    36    10    34    1
    37    11    35    1
    38    12    36    1
    39    13    37    1
    40    15    38    1
    41    15    39    1
    42    19    40    1
    43    23    41    1
    44    27    42    1
    45    28    43    1
    46    29    44    1
    47    30    45    1
    48    31    46    1
    49    31    47    1
    50     2    48    1
    51     6    49    1
    52     9    50    1
    53    14    51    1
    54    14    52    1
    55    18    53    1
    56    18    54    1
    57    19    55    1
    58    19    56    1
    59    22    57    1
    60    22    58    1
    61    23    59    1
    62    23    60    1
    63    26    61    1
    64    26    62    1
    65    27    63    1
    66    27    64    1
    67    28    65    1
    68    28    66    1
    69    29    67    1
    70    29    68    1
    71    30    69    1
    72    30    70    1
@<TRIPOS>SUBSTRUCTURE
     1 RES1        1 GROUP             0 ****  ****    0  
@<TRIPOS>MOLECULE
55.0053
    70    72     1     0     0
SMALL
NO_CHARGES
****
Generated from the CSD

@<TRIPOS>ATOM
     1 C       94.3626  94.7743  82.9110   C.ar      1 RES1   0.0000
     2 N       94.5405  93.7570  83.7852   N.ar      1 RES1   0.0000
     3 C       95.7552  93.4669  84.2968   C.ar      1 RES1   0.0000
     4 C       96.8225  94.2607  83.8859   C.ar      1 RES1   0.0000
     5 C       96.6114  95.2937  82.9862   C.ar      1 RES1   0.0000
     6 N       95.3860  95.5535  82.4999   N.ar      1 RES1   0.0000
     7 N       97.8085  95.8680  82.7769   N.ar      1 RES1   0.0000
     8 C       98.7412  95.2380  83.5200   C.ar      1 RES1   0.0000
     9 N       98.1314  94.2441  84.1987   N.ar      1 RES1   0.0000
    10 C       98.0451  96.9356  81.9647   C.3       1 RES1   0.0000
    11 C       98.8071  96.5431  80.6788   C.3       1 RES1   0.0000
    12 C       98.0705  97.3084  79.5580   C.3       1 RES1   0.0000
    13 C       97.1563  98.2751  80.3366   C.3       1 RES1   0.0000
    14 O       96.8189  97.4945  81.4851   O.3       1 RES1   0.0000
    15 C       95.8861  98.6738  79.5598   C.3       1 RES1   0.0000
    16 O       95.2624  99.7692  80.2358   O.3       1 RES1   0.0000
    17 P       93.6695  99.9125  80.2644   P.3       1 RES1   0.0000
    18 O       93.1971  99.9530  81.6770   O.2       1 RES1   0.0000
    19 O       93.2405 101.2623  79.5205   O.3       1 RES1   0.0000
    20 O       93.0229  98.6562  79.5109   O.3       1 RES1   0.0000
    21 P       92.0972  97.8006  80.4994   P.3       1 RES1   0.0000
    22 O       90.9410  98.6411  80.9198   O.2       1 RES1   0.0000
    23 O       92.9359  97.3835  81.7973   O.3       1 RES1   0.0000
    24 O       91.5644  96.4906  79.7472   O.3       1 RES1   0.0000
    25 P       90.6285  95.6002  80.6931   P.3       1 RES1   0.0000
    26 O       90.0093  94.4965  79.9066   O.2       1 RES1   0.0000
    27 O       89.4670  96.5182  81.2994   O.3       1 RES1   0.0000
    28 O       91.4939  94.9838  81.8893   O.3       1 RES1   0.0000
    29 O       98.9893  97.9997  78.7036   O.3       1 RES1   0.0000
    30 O      100.1775  96.9524  80.7600   O.3       1 RES1   0.0000
    31 N       95.9323  92.4518  85.1695   N.pl3     1 RES1   0.0000
    32 H1      93.3674  94.9700  82.5286   H         1 RES1   0.0000
    33 H2      99.7959  95.4849  83.5654   H         1 RES1   0.0000
    34 H3      98.6004  97.7243  82.4957   H         1 RES1   0.0000
    35 H4      98.7434  95.4599  80.4901   H         1 RES1   0.0000
    36 H5      97.4558  96.5974  78.9841   H         1 RES1   0.0000
    37 H6      97.7262  99.1661  80.6426   H         1 RES1   0.0000
    38 H7      96.1375  98.9704  78.5309   H         1 RES1   0.0000
    39 H8      95.1921  97.8202  79.5367   H         1 RES1   0.0000
    40 H9      92.7943 101.8339  80.1341   H         1 RES1   0.0000
    41 H10     93.6123  96.7607  81.5586   H         1 RES1   0.0000
    42 H11     88.6557  96.3541  80.8331   H         1 RES1   0.0000
    43 H12     91.7246  95.6724  82.5016   H         1 RES1   0.0000
    44 H13     98.8012  97.8134  77.7911   H         1 RES1   0.0000
    45 H14    100.7130  96.4362  80.1680   H         1 RES1   0.0000
    46 H15     95.1279  91.8776  85.4594   H         1 RES1   0.0000
    47 H16     96.8700  92.2498  85.5457   H         1 RES1   0.0000
    48 ****    93.7521  93.2062  84.0592   Du        1 RES1   0.0000
    49 ****    95.2364  96.3013  81.8531   Du        1 RES1   0.0000
    50 ****    98.5756  93.6048  84.8264   Du        1 RES1   0.0000
    51 ****    96.1814  96.7663  81.2337   Du        1 RES1   0.0000
    52 ****    96.4040  98.0731  82.1873   Du        1 RES1   0.0000
    53 ****    93.8540 100.0786  82.4204   Du        1 RES1   0.0000
    54 ****    92.2232  99.8547  81.8815   Du        1 RES1   0.0000
    55 ****    92.6269 101.0441  78.7616   Du        1 RES1   0.0000
    56 ****    94.0555 101.7224  79.1684   Du        1 RES1   0.0000
    57 ****    90.8978  99.6030  80.6499   Du        1 RES1   0.0000
    58 ****    90.2082  98.2433  81.4719   Du        1 RES1   0.0000
    59 ****    92.3230  96.9664  82.4684   Du        1 RES1   0.0000
    60 ****    93.3599  98.1977  82.1940   Du        1 RES1   0.0000
    61 ****    90.3696  93.5666  79.9807   Du        1 RES1   0.0000
    62 ****    89.2335  94.6857  79.3047   Du        1 RES1   0.0000
    63 ****    89.7184  97.4811  81.2016   Du        1 RES1   0.0000
    64 ****    89.3437  96.3027  82.2681   Du        1 RES1   0.0000
    65 ****    92.3276  94.5732  81.5202   Du        1 RES1   0.0000
    66 ****    90.9584  94.2837  82.3616   Du        1 RES1   0.0000
    67 ****    99.9209  97.7036  78.9145   Du        1 RES1   0.0000
    68 ****    98.9085  98.9838  78.8617   Du        1 RES1   0.0000
    69 ****   100.5046  96.8249  81.6963   Du        1 RES1   0.0000
    70 ****   100.2482  97.9183  80.5109   Du        1 RES1   0.0000
@<TRIPOS>BOND
     1     1     2   ar
     2     2     3   ar
     3     3     4   ar
     4     4     5   ar
     5     5     6   ar
     6     1     6   ar
     7     5     7   ar
     8     7     8   ar
     9     8     9   ar
    10     4     9   ar
    11     7    10    1
    12    10    11    1
    13    11    12    1
    14    12    13    1
    15    13    14    1
    16    10    14    1
    17    13    15    1
    18    15    16    1
    19    16    17    1
    20    17    18    2
    21    17    19    1
    22    17    20    1
    23    20    21    1
    24    21    22    2
    25    21    23    1
    26    21    24    1
    27    24    25    1
    28    25    26    2
    29    25    27    1
    30    25    28    1
    31    12    29    1
    32    11    30    1
    33     3    31    1
    34     1    32    1
    35     8    33    1
    36    10    34    1
    37    11    35    1
    38    12    36    1
    39    13    37    1
    40    15    38    1
    41    15    39    1
    42    19    40    1
    43    23    41    1
    44    27    42    1
    45    28    43    1
    46    29    44    1
    47    30    45    1
    48    31    46    1
    49    31    47    1
    50     2    48    1
    51     6    49    1
    52     9    50    1
    53    14    51    1
    54    14    52    1
    55    18    53    1
    56    18    54    1
    57    19    55    1
    58    19    56    1
    59    22    57    1
    60    22    58    1
    61    23    59    1
    62    23    60    1
    63    26    61    1
    64    26    62    1
    65    27    63    1
    66    27    64    1
    67    28    65    1
    68    28    66    1
    69    29    67    1
    70    29    68    1
    71    30    69    1
    72    30    70    1
@<TRIPOS>SUBSTRUCTURE
     1 RES1        1 GROUP             0 ****  ****    0  
@<TRIPOS>MOLECULE
52.4603
    70    72     1     0     0
SMALL
NO_CHARGES
****
Generated from the CSD

@<TRIPOS>ATOM
     1 C      102.8725 101.4916  80.7191   C.ar      1 RES1   0.0000
     2 N      103.1735 101.9953  79.4998   N.ar      1 RES1   0.0000
     3 C      102.4186 101.7229  78.4148   C.ar      1 RES1   0.0000
     4 C      101.3128 100.8983  78.6023   C.ar      1 RES1   0.0000
     5 C      101.0308 100.3934  79.8619   C.ar      1 RES1   0.0000
     6 N      101.8053 100.6890  80.9195   N.ar      1 RES1   0.0000
     7 N       99.9264  99.6385  79.7319   N.ar      1 RES1   0.0000
     8 C       99.5134  99.6700  78.4484   C.ar      1 RES1   0.0000
     9 N      100.3731 100.4432  77.7531   N.ar      1 RES1   0.0000
    10 C       99.3015  98.9668  80.7388   C.3       1 RES1   0.0000
    11 C       98.1350  98.0901  80.2301   C.3       1 RES1   0.0000
    12 C       98.3078  96.7575  80.9908   C.3       1 RES1   0.0000
    13 C       99.3671  97.0983  82.0578   C.3       1 RES1   0.0000
    14 O      100.1909  98.0350  81.3605   O.3       1 RES1   0.0000
    15 C      100.1948  95.8787  82.5085   C.3       1 RES1   0.0000
    16 O       99.3466  95.0023  83.2558   O.3       1 RES1   0.0000
    17 P       99.1812  93.4681  82.8342   P.3       1 RES1   0.0000
    18 O      100.2241  93.1105  81.8319   O.2       1 RES1   0.0000
    19 O       99.3427  92.5380  84.1258   O.3       1 RES1   0.0000
    20 O       97.7251  93.2590  82.2016   O.3       1 RES1   0.0000
    21 P       96.5879  93.3309  83.3276   P.3       1 RES1   0.0000
    22 O       96.9270  94.4244  84.2812   O.2       1 RES1   0.0000
    23 O       96.5309  91.9444  84.1254   O.3       1 RES1   0.0000
    24 O       95.1687  93.6307  82.6482   O.3       1 RES1   0.0000
    25 P       93.9938  93.7086  83.7332   P.3       1 RES1   0.0000
    26 O       92.6931  93.9806  83.0594   O.2       1 RES1   0.0000
    27 O       94.3030  94.8960  84.7598   O.3       1 RES1   0.0000
    28 O       93.9019  92.3271  84.5350   O.3       1 RES1   0.0000
    29 O       97.0732  96.3211  81.5716   O.3       1 RES1   0.0000
    30 O       96.8752  98.6960  80.5431   O.3       1 RES1   0.0000
    31 N      102.7193 102.2261  77.1982   N.pl3     1 RES1   0.0000
    32 H1     103.5080 101.7402  81.5612   H         1 RES1   0.0000
    33 H2      98.6441  99.1637  78.0442   H         1 RES1   0.0000
    34 H3      98.9320  99.6599  81.5104   H         1 RES1   0.0000
    35 H4      98.2123  97.9095  79.1464   H         1 RES1   0.0000
    36 H5      98.7084  96.0003  80.2987   H         1 RES1   0.0000
    37 H6      98.8878  97.5886  82.9192   H         1 RES1   0.0000
    38 H7     100.6029  95.3436  81.6383   H         1 RES1   0.0000
    39 H8     101.0208  96.2183  83.1512   H         1 RES1   0.0000
    40 H9      99.6932  93.0517  84.8439   H         1 RES1   0.0000
    41 H10     95.9654  92.0310  84.8837   H         1 RES1   0.0000
    42 H11     93.5143  95.4059  84.9033   H         1 RES1   0.0000
    43 H12     94.4260  92.3834  85.3251   H         1 RES1   0.0000
    44 H13     96.5121  95.9331  80.9102   H         1 RES1   0.0000
    45 H14     96.6899  98.6140  81.4719   H         1 RES1   0.0000
    46 H15    103.5426 102.8341  77.0831   H         1 RES1   0.0000
    47 H16    102.1275 102.0028  76.3849   H         1 RES1   0.0000
    48 ****   103.9755 102.5843  79.4002   Du        1 RES1   0.0000
    49 ****   101.5975 100.3255  81.8277   Du        1 RES1   0.0000
    50 ****   100.3210 100.6436  76.7748   Du        1 RES1   0.0000
    51 ****   100.7397  97.5656  80.6687   Du        1 RES1   0.0000
    52 ****   100.7958  98.5081  82.0011   Du        1 RES1   0.0000
    53 ****   100.9160  92.4234  82.0537   Du        1 RES1   0.0000
    54 ****   100.2322  93.5577  80.9375   Du        1 RES1   0.0000
    55 ****    99.9674  91.7852  83.9184   Du        1 RES1   0.0000
    56 ****    98.4501  92.1689  84.3845   Du        1 RES1   0.0000
    57 ****    96.5244  95.3323  84.1645   Du        1 RES1   0.0000
    58 ****    97.5573  94.2504  85.0378   Du        1 RES1   0.0000
    59 ****    97.4520  91.6962  84.4253   Du        1 RES1   0.0000
    60 ****    96.1724  91.2303  83.5241   Du        1 RES1   0.0000
    61 ****    92.5732  94.8155  82.5223   Du        1 RES1   0.0000
    62 ****    91.9400  93.3282  83.1443   Du        1 RES1   0.0000
    63 ****    95.0165  95.4858  84.3816   Du        1 RES1   0.0000
    64 ****    94.6140  94.5121  85.6292   Du        1 RES1   0.0000
    65 ****    94.2450  91.5846  83.9598   Du        1 RES1   0.0000
    66 ****    92.9492  92.1465  84.7794   Du        1 RES1   0.0000
    67 ****    96.6064  97.1056  81.9799   Du        1 RES1   0.0000
    68 ****    97.2650  95.6417  82.2799   Du        1 RES1   0.0000
    69 ****    96.1526  98.2422  80.0216   Du        1 RES1   0.0000
    70 ****    96.9053  99.6649  80.2974   Du        1 RES1   0.0000
@<TRIPOS>BOND
     1     1     2   ar
     2     2     3   ar
     3     3     4   ar
     4     4     5   ar
     5     5     6   ar
     6     1     6   ar
     7     5     7   ar
     8     7     8   ar
     9     8     9   ar
    10     4     9   ar
    11     7    10    1
    12    10    11    1
    13    11    12    1
    14    12    13    1
    15    13    14    1
    16    10    14    1
    17    13    15    1
    18    15    16    1
    19    16    17    1
    20    17    18    2
    21    17    19    1
    22    17    20    1
    23    20    21    1
    24    21    22    2
    25    21    23    1
    26    21    24    1
    27    24    25    1
    28    25    26    2
    29    25    27    1
    30    25    28    1
    31    12    29    1
    32    11    30    1
    33     3    31    1
    34     1    32    1
    35     8    33    1
    36    10    34    1
    37    11    35    1
    38    12    36    1
    39    13    37    1
    40    15    38    1
    41    15    39    1
    42    19    40    1
    43    23    41    1
    44    27    42    1
    45    28    43    1
    46    29    44    1
    47    30    45    1
    48    31    46    1
    49    31    47    1
    50     2    48    1
    51     6    49    1
    52     9    50    1
    53    14    51    1
    54    14    52    1
    55    18    53    1
    56    18    54    1
    57    19    55    1
    58    19    56    1
    59    22    57    1
    60    22    58    1
    61    23    59    1
    62    23    60    1
    63    26    61    1
    64    26    62    1
    65    27    63    1
    66    27    64    1
    67    28    65    1
    68    28    66    1
    69    29    67    1
    70    29    68    1
    71    30    69    1
    72    30    70    1
@<TRIPOS>SUBSTRUCTURE
     1 RES1        1 GROUP             0 ****  ****    0  
@<TRIPOS>MOLECULE
49.1698
    70    72     1     0     0
SMALL
NO_CHARGES
****
Generated from the CSD

@<TRIPOS>ATOM
     1 C       97.7055  93.1975  83.1782   C.ar      1 RES1   0.0000
     2 N       98.9267  92.9635  83.7119   N.ar      1 RES1   0.0000
     3 C       99.9754  93.7762  83.4647   C.ar      1 RES1   0.0000
     4 C       99.7481  94.8699  82.6339   C.ar      1 RES1   0.0000
     5 C       98.4877  95.0828  82.0981   C.ar      1 RES1   0.0000
     6 N       97.4669  94.2520  82.3691   N.ar      1 RES1   0.0000
     7 N       98.5758  96.1924  81.3447   N.ar      1 RES1   0.0000
     8 C       99.8338  96.6747  81.4067   C.ar      1 RES1   0.0000
     9 N      100.5557  95.8543  82.1980   N.ar      1 RES1   0.0000
    10 C       97.5531  96.7613  80.6476   C.3       1 RES1   0.0000
    11 C       96.4740  97.3698  81.5716   C.3       1 RES1   0.0000
    12 C       96.1550  98.7361  80.9266   C.3       1 RES1   0.0000
    13 C       96.8607  98.6507  79.5586   C.3       1 RES1   0.0000
    14 O       98.0167  97.8729  79.8760   O.3       1 RES1   0.0000
    15 C       97.2703 100.0258  78.9955   C.3       1 RES1   0.0000
    16 O       96.2344 100.4898  78.1252   O.3       1 RES1   0.0000
    17 P       96.4789 100.5986  76.5482   P.3       1 RES1   0.0000
    18 O       97.6043 101.5377  76.2810   O.2       1 RES1   0.0000
    19 O       96.8398  99.1544  75.9620   O.3       1 RES1   0.0000
    20 O       95.1420 101.1405  75.8530   O.3       1 RES1   0.0000
    21 P       94.7745 102.6113  76.3706   P.3       1 RES1   0.0000
    22 O       93.6828 103.1600  75.5177   O.2       1 RES1   0.0000
    23 O       96.0567 103.5616  76.2490   O.3       1 RES1   0.0000
    24 O       94.2845 102.5446  77.8942   O.3       1 RES1   0.0000
    25 P       94.0002 104.0022  78.4925   P.3       1 RES1   0.0000
    26 O       93.5981 103.8978  79.9234   O.2       1 RES1   0.0000
    27 O       92.8110 104.6864  77.6696   O.3       1 RES1   0.0000
    28 O       95.3151 104.9056  78.3713   O.3       1 RES1   0.0000
    29 O       94.7428  98.9381  80.7972   O.3       1 RES1   0.0000
    30 O       95.3091  96.5366  81.6030   O.3       1 RES1   0.0000
    31 N      101.1938  93.5424  83.9978   N.pl3     1 RES1   0.0000
    32 H1      96.8933  92.5172  83.4072   H         1 RES1   0.0000
    33 H2     100.2024  97.5645  80.9090   H         1 RES1   0.0000
    34 H3      97.0858  96.0361  79.9635   H         1 RES1   0.0000
    35 H4      96.8601  97.5238  82.5914   H         1 RES1   0.0000
    36 H5      96.6144  99.5330  81.5321   H         1 RES1   0.0000
    37 H6      96.2265  98.1054  78.8425   H         1 RES1   0.0000
    38 H7      97.4195 100.7498  79.8101   H         1 RES1   0.0000
    39 H8      98.2039  99.9199  78.4228   H         1 RES1   0.0000
    40 H9      97.7676  98.9879  76.0794   H         1 RES1   0.0000
    41 H10     95.7846 104.4449  76.0298   H         1 RES1   0.0000
    42 H11     91.9823 104.5029  78.0961   H         1 RES1   0.0000
    43 H12     96.0334 104.4831  78.8270   H         1 RES1   0.0000
    44 H13     94.5035  99.0469  79.8841   H         1 RES1   0.0000
    45 H14     95.4935  95.6942  81.2030   H         1 RES1   0.0000
    46 H15    101.3386  92.7268  84.6098   H         1 RES1   0.0000
    47 H16    101.9790  94.1776  83.7935   H         1 RES1   0.0000
    48 ****    99.0554  92.1683  84.3044   Du        1 RES1   0.0000
    49 ****    96.5579  94.4099  81.9832   Du        1 RES1   0.0000
    50 ****   101.5246  95.9596  82.4222   Du        1 RES1   0.0000
    51 ****    98.6651  98.4174  80.4081   Du        1 RES1   0.0000
    52 ****    98.4592  97.5524  79.0384   Du        1 RES1   0.0000
    53 ****    98.2454 101.7708  77.0122   Du        1 RES1   0.0000
    54 ****    97.7186 101.9350  75.3704   Du        1 RES1   0.0000
    55 ****    96.6164  99.1247  74.9878   Du        1 RES1   0.0000
    56 ****    96.3120  98.4567  76.4464   Du        1 RES1   0.0000
    57 ****    93.9019 103.5993  74.6465   Du        1 RES1   0.0000
    58 ****    92.7312 103.0888  75.8165   Du        1 RES1   0.0000
    59 ****    96.6610 103.2132  75.5325   Du        1 RES1   0.0000
    60 ****    96.5456 103.5722  77.1213   Du        1 RES1   0.0000
    61 ****    93.9303 104.5688  80.5863   Du        1 RES1   0.0000
    62 ****    92.9961 103.1568  80.2208   Du        1 RES1   0.0000
    63 ****    92.7954 104.3192  76.7396   Du        1 RES1   0.0000
    64 ****    92.9559 105.6753  77.6351   Du        1 RES1   0.0000
    65 ****    95.1424 105.8018  78.7800   Du        1 RES1   0.0000
    66 ****    95.5534 105.0194  77.4068   Du        1 RES1   0.0000
    67 ****    94.4799  99.7579  81.3059   Du        1 RES1   0.0000
    68 ****    94.2615  98.1452  81.1710   Du        1 RES1   0.0000
    69 ****    94.5696  96.9850  81.1010   Du        1 RES1   0.0000
    70 ****    95.0299  96.3962  82.5529   Du        1 RES1   0.0000
@<TRIPOS>BOND
     1     1     2   ar
     2     2     3   ar
     3     3     4   ar
     4     4     5   ar
     5     5     6   ar
     6     1     6   ar
     7     5     7   ar
     8     7     8   ar
     9     8     9   ar
    10     4     9   ar
    11     7    10    1
    12    10    11    1
    13    11    12    1
    14    12    13    1
    15    13    14    1
    16    10    14    1
    17    13    15    1
    18    15    16    1
    19    16    17    1
    20    17    18    2
    21    17    19    1
    22    17    20    1
    23    20    21    1
    24    21    22    2
    25    21    23    1
    26    21    24    1
    27    24    25    1
    28    25    26    2
    29    25    27    1
    30    25    28    1
    31    12    29    1
    32    11    30    1
    33     3    31    1
    34     1    32    1
    35     8    33    1
    36    10    34    1
    37    11    35    1
    38    12    36    1
    39    13    37    1
    40    15    38    1
    41    15    39    1
    42    19    40    1
    43    23    41    1
    44    27    42    1
    45    28    43    1
    46    29    44    1
    47    30    45    1
    48    31    46    1
    49    31    47    1
    50     2    48    1
    51     6    49    1
    52     9    50    1
    53    14    51    1
    54    14    52    1
    55    18    53    1
    56    18    54    1
    57    19    55    1
    58    19    56    1
    59    22    57    1
    60    22    58    1
    61    23    59    1
    62    23    60    1
    63    26    61    1
    64    26    62    1
    65    27    63    1
    66    27    64    1
    67    28    65    1
    68    28    66    1
    69    29    67    1
    70    29    68    1
    71    30    69    1
    72    30    70    1
@<TRIPOS>SUBSTRUCTURE
     1 RES1        1 GROUP             0 ****  ****    0  
@<TRIPOS>MOLECULE
48.7993
    70    72     1     0     0
SMALL
NO_CHARGES
****
Generated from the CSD

@<TRIPOS>ATOM
     1 C      102.5619 101.6074  81.1503   C.ar      1 RES1   0.0000
     2 N      103.9072 101.5996  81.2945   N.ar      1 RES1   0.0000
     3 C      104.6015 100.4473  81.4022   C.ar      1 RES1   0.0000
     4 C      103.8731  99.2616  81.3590   C.ar      1 RES1   0.0000
     5 C      102.4952  99.3000  81.2144   C.ar      1 RES1   0.0000
     6 N      101.8388 100.4677  81.1081   N.ar      1 RES1   0.0000
     7 N      102.0761  98.0230  81.2128   N.ar      1 RES1   0.0000
     8 C      103.1405  97.2042  81.3379   C.ar      1 RES1   0.0000
     9 N      104.2466  97.9708  81.4332   N.ar      1 RES1   0.0000
    10 C      100.7842  97.6121  81.0789   C.3       1 RES1   0.0000
    11 C      100.4268  96.4601  82.0450   C.3       1 RES1   0.0000
    12 C       99.0415  96.8540  82.6021   C.3       1 RES1   0.0000
    13 C       98.6203  98.0275  81.6953   C.3       1 RES1   0.0000
    14 O       99.8758  98.6582  81.4343   O.3       1 RES1   0.0000
    15 C       97.6513  99.0113  82.3800   C.3       1 RES1   0.0000
    16 O       96.7571  99.5329  81.3929   O.3       1 RES1   0.0000
    17 P       95.4771  98.6954  80.9249   P.3       1 RES1   0.0000
    18 O       95.4640  97.3755  81.6161   O.2       1 RES1   0.0000
    19 O       94.1459  99.5026  81.2931   O.3       1 RES1   0.0000
    20 O       95.5514  98.4782  79.3401   O.3       1 RES1   0.0000
    21 P       94.2796  97.6637  78.8061   P.3       1 RES1   0.0000
    22 O       93.0933  98.5652  78.8205   O.2       1 RES1   0.0000
    23 O       93.9960  96.4159  79.7677   O.3       1 RES1   0.0000
    24 O       94.5491  97.1536  77.3118   O.3       1 RES1   0.0000
    25 P       95.9112  97.7483  76.7164   P.3       1 RES1   0.0000
    26 O       96.1322  97.2352  75.3351   O.2       1 RES1   0.0000
    27 O       97.1342  97.2900  77.6404   O.3       1 RES1   0.0000
    28 O       95.8400  99.3464  76.6879   O.3       1 RES1   0.0000
    29 O       98.1195  95.7596  82.5370   O.3       1 RES1   0.0000
    30 O      100.3577  95.2146  81.3408   O.3       1 RES1   0.0000
    31 N      105.9442 100.4400  81.5458   N.pl3     1 RES1   0.0000
    32 H1     102.0484 102.5582  81.0661   H         1 RES1   0.0000
    33 H2     103.1143  96.1205  81.3587   H         1 RES1   0.0000
    34 H3     100.5697  97.3045  80.0437   H         1 RES1   0.0000
    35 H4     101.1513  96.3909  82.8716   H         1 RES1   0.0000
    36 H5      99.1606  97.2093  83.6376   H         1 RES1   0.0000
    37 H6      98.1919  97.6419  80.7573   H         1 RES1   0.0000
    38 H7      97.0754  98.5038  83.1679   H         1 RES1   0.0000
    39 H8      98.2264  99.8393  82.8210   H         1 RES1   0.0000
    40 H9      93.7018  99.7619  80.4943   H         1 RES1   0.0000
    41 H10     94.5333  95.6777  79.5059   H         1 RES1   0.0000
    42 H11     97.9260  97.2393  77.1179   H         1 RES1   0.0000
    43 H12     95.6764  99.6724  77.5649   H         1 RES1   0.0000
    44 H13     98.3285  95.1903  81.8055   H         1 RES1   0.0000
    45 H14    100.5429  95.3453  80.4176   H         1 RES1   0.0000
    46 H15    106.4623 101.3296  81.5752   H         1 RES1   0.0000
    47 H16    106.4515  99.5468  81.6265   H         1 RES1   0.0000
    48 ****   104.3995 102.4696  81.3220   Du        1 RES1   0.0000
    49 ****   100.8449 100.4920  81.0010   Du        1 RES1   0.0000
    50 ****   105.1832  97.6372  81.5405   Du        1 RES1   0.0000
    51 ****   100.1999  99.1356  82.2510   Du        1 RES1   0.0000
    52 ****    99.7861  99.3097  80.6810   Du        1 RES1   0.0000
    53 ****    95.6957  97.3173  82.5872   Du        1 RES1   0.0000
    54 ****    95.2235  96.5478  81.1090   Du        1 RES1   0.0000
    55 ****    94.3854 100.3175  81.8209   Du        1 RES1   0.0000
    56 ****    93.5418  98.9194  81.8361   Du        1 RES1   0.0000
    57 ****    92.6254  98.7621  79.6821   Du        1 RES1   0.0000
    58 ****    92.7651  98.9733  77.9686   Du        1 RES1   0.0000
    59 ****    93.0307  96.1621  79.7057   Du        1 RES1   0.0000
    60 ****    94.2146  96.6674  80.7106   Du        1 RES1   0.0000
    61 ****    97.0581  97.0223  75.0230   Du        1 RES1   0.0000
    62 ****    95.3546  97.1037  74.7202   Du        1 RES1   0.0000
    63 ****    96.9364  96.3920  78.0333   Du        1 RES1   0.0000
    64 ****    97.2629  97.9548  78.3762   Du        1 RES1   0.0000
    65 ****    95.0997  99.6361  76.0813   Du        1 RES1   0.0000
    66 ****    96.7082  99.7127  76.3529   Du        1 RES1   0.0000
    67 ****    97.1927  96.1169  82.4212   Du        1 RES1   0.0000
    68 ****    98.1709  95.2353  83.3869   Du        1 RES1   0.0000
    69 ****    99.4402  94.8295  81.4414   Du        1 RES1   0.0000
    70 ****   101.0291  94.5809  81.7251   Du        1 RES1   0.0000
@<TRIPOS>BOND
     1     1     2   ar
     2     2     3   ar
     3     3     4   ar
     4     4     5   ar
     5     5     6   ar
     6     1     6   ar
     7     5     7   ar
     8     7     8   ar
     9     8     9   ar
    10     4     9   ar
    11     7    10    1
    12    10    11    1
    13    11    12    1
    14    12    13    1
    15    13    14    1
    16    10    14    1
    17    13    15    1
    18    15    16    1
    19    16    17    1
    20    17    18    2
    21    17    19    1
    22    17    20    1
    23    20    21    1
    24    21    22    2
    25    21    23    1
    26    21    24    1
    27    24    25    1
    28    25    26    2
    29    25    27    1
    30    25    28    1
    31    12    29    1
    32    11    30    1
    33     3    31    1
    34     1    32    1
    35     8    33    1
    36    10    34    1
    37    11    35    1
    38    12    36    1
    39    13    37    1
    40    15    38    1
    41    15    39    1
    42    19    40    1
    43    23    41    1
    44    27    42    1
    45    28    43    1
    46    29    44    1
    47    30    45    1
    48    31    46    1
    49    31    47    1
    50     2    48    1
    51     6    49    1
    52     9    50    1
    53    14    51    1
    54    14    52    1
    55    18    53    1
    56    18    54    1
    57    19    55    1
    58    19    56    1
    59    22    57    1
    60    22    58    1
    61    23    59    1
    62    23    60    1
    63    26    61    1
    64    26    62    1
    65    27    63    1
    66    27    64    1
    67    28    65    1
    68    28    66    1
    69    29    67    1
    70    29    68    1
    71    30    69    1
    72    30    70    1
@<TRIPOS>SUBSTRUCTURE
     1 RES1        1 GROUP             0 ****  ****    0  
@<TRIPOS>MOLECULE
47.9151
    70    72     1     0     0
SMALL
NO_CHARGES
****
Generated from the CSD

@<TRIPOS>ATOM
     1 C       93.2463  94.7192  82.7024   C.ar      1 RES1   0.0000
     2 N       92.8329  93.4715  83.0233   N.ar      1 RES1   0.0000
     3 C       93.7042  92.5102  83.3949   C.ar      1 RES1   0.0000
     4 C       95.0520  92.8566  83.4344   C.ar      1 RES1   0.0000
     5 C       95.4471  94.1415  83.0967   C.ar      1 RES1   0.0000
     6 N       94.5492  95.0728  82.7333   N.ar      1 RES1   0.0000
     7 N       96.7850  94.1741  83.2206   N.ar      1 RES1   0.0000
     8 C       97.2243  92.9670  83.6318   C.ar      1 RES1   0.0000
     9 N       96.1541  92.1552  83.7576   N.ar      1 RES1   0.0000
    10 C       97.5765  95.2595  82.9946   C.3       1 RES1   0.0000
    11 C       98.6236  95.0075  81.8863   C.3       1 RES1   0.0000
    12 C       98.5801  96.2918  81.0302   C.3       1 RES1   0.0000
    13 C       97.7352  97.2554  81.8871   C.3       1 RES1   0.0000
    14 O       96.8066  96.3596  82.5016   O.3       1 RES1   0.0000
    15 C       96.9925  98.3204  81.0566   C.3       1 RES1   0.0000
    16 O       96.5022  97.7070  79.8611   O.3       1 RES1   0.0000
    17 P       94.9736  97.8782  79.4218   P.3       1 RES1   0.0000
    18 O       94.7594  99.2511  78.8840   O.2       1 RES1   0.0000
    19 O       94.6180  96.8023  78.2925   O.3       1 RES1   0.0000
    20 O       94.0380  97.6430  80.6999   O.3       1 RES1   0.0000
    21 P       93.0444  98.8790  80.9266   P.3       1 RES1   0.0000
    22 O       93.8537 100.0997  81.2004   O.2       1 RES1   0.0000
    23 O       92.1004  98.5877  82.1860   O.3       1 RES1   0.0000
    24 O       92.1534  99.1075  79.6152   O.3       1 RES1   0.0000
    25 P       91.1143 100.3109  79.8038   P.3       1 RES1   0.0000
    26 O       90.3207 100.5009  78.5572   O.2       1 RES1   0.0000
    27 O       91.9193 101.6579  80.1151   O.3       1 RES1   0.0000
    28 O       90.1275  99.9912  81.0220   O.3       1 RES1   0.0000
    29 O       99.8958  96.7999  80.7795   O.3       1 RES1   0.0000
    30 O       99.9245  94.8180  82.4554   O.3       1 RES1   0.0000
    31 N       93.2910  91.2651  83.7153   N.pl3     1 RES1   0.0000
    32 H1      92.5086  95.4582  82.4115   H         1 RES1   0.0000
    33 H2      98.2554  92.6948  83.8272   H         1 RES1   0.0000
    34 H3      98.0860  95.5796  83.9167   H         1 RES1   0.0000
    35 H4      98.3491  94.1402  81.2654   H         1 RES1   0.0000
    36 H5      98.0539  96.0752  80.0873   H         1 RES1   0.0000
    37 H6      98.3672  97.7263  82.6560   H         1 RES1   0.0000
    38 H7      96.1512  98.7405  81.6274   H         1 RES1   0.0000
    39 H8      97.6933  99.1256  80.7892   H         1 RES1   0.0000
    40 H9      94.7054  95.9267  78.6506   H         1 RES1   0.0000
    41 H10     92.2602  97.7105  82.5134   H         1 RES1   0.0000
    42 H11     92.4815 101.8697  79.3792   H         1 RES1   0.0000
    43 H12     89.6185 100.7658  81.2297   H         1 RES1   0.0000
    44 H13    100.3888  96.1961  80.2363   H         1 RES1   0.0000
    45 H14     99.8795  94.8551  83.4042   H         1 RES1   0.0000
    46 H15     92.2886  91.0314  83.6789   H         1 RES1   0.0000
    47 H16     93.9761  90.5483  83.9955   H         1 RES1   0.0000
    48 ****    91.8571  93.2562  82.9840   Du        1 RES1   0.0000
    49 ****    94.8372  95.9998  82.4930   Du        1 RES1   0.0000
    50 ****    96.1761  91.1968  84.0423   Du        1 RES1   0.0000
    51 ****    96.1373  96.0407  81.8305   Du        1 RES1   0.0000
    52 ****    96.3323  96.8154  83.2547   Du        1 RES1   0.0000
    53 ****    95.0320  99.4692  77.9469   Du        1 RES1   0.0000
    54 ****    94.3430  99.9544  79.4601   Du        1 RES1   0.0000
    55 ****    95.2438  96.9105  77.5201   Du        1 RES1   0.0000
    56 ****    93.6779  96.9431  77.9821   Du        1 RES1   0.0000
    57 ****    94.4600 100.1298  81.9951   Du        1 RES1   0.0000
    58 ****    93.7906 100.8888  80.5895   Du        1 RES1   0.0000
    59 ****    91.1431  98.6690  81.9087   Du        1 RES1   0.0000
    60 ****    92.2959  99.2519  82.9076   Du        1 RES1   0.0000
    61 ****    90.0479 101.4202  78.2734   Du        1 RES1   0.0000
    62 ****    90.0609  99.7092  78.0043   Du        1 RES1   0.0000
    63 ****    92.4777 101.5302  80.9348   Du        1 RES1   0.0000
    64 ****    91.2722 102.4053  80.2657   Du        1 RES1   0.0000
    65 ****    90.6628  99.7200  81.8220   Du        1 RES1   0.0000
    66 ****    89.5114  99.2466  80.7651   Du        1 RES1   0.0000
    67 ****   100.3721  96.9230  81.6501   Du        1 RES1   0.0000
    68 ****    99.8245  97.6806  80.3112   Du        1 RES1   0.0000
    69 ****   100.5362  95.5374  82.1262   Du        1 RES1   0.0000
    70 ****   100.2793  93.9255  82.1769   Du        1 RES1   0.0000
@<TRIPOS>BOND
     1     1     2   ar
     2     2     3   ar
     3     3     4   ar
     4     4     5   ar
     5     5     6   ar
     6     1     6   ar
     7     5     7   ar
     8     7     8   ar
     9     8     9   ar
    10     4     9   ar
    11     7    10    1
    12    10    11    1
    13    11    12    1
    14    12    13    1
    15    13    14    1
    16    10    14    1
    17    13    15    1
    18    15    16    1
    19    16    17    1
    20    17    18    2
    21    17    19    1
    22    17    20    1
    23    20    21    1
    24    21    22    2
    25    21    23    1
    26    21    24    1
    27    24    25    1
    28    25    26    2
    29    25    27    1
    30    25    28    1
    31    12    29    1
    32    11    30    1
    33     3    31    1
    34     1    32    1
    35     8    33    1
    36    10    34    1
    37    11    35    1
    38    12    36    1
    39    13    37    1
    40    15    38    1
    41    15    39    1
    42    19    40    1
    43    23    41    1
    44    27    42    1
    45    28    43    1
    46    29    44    1
    47    30    45    1
    48    31    46    1
    49    31    47    1
    50     2    48    1
    51     6    49    1
    52     9    50    1
    53    14    51    1
    54    14    52    1
    55    18    53    1
    56    18    54    1
    57    19    55    1
    58    19    56    1
    59    22    57    1
    60    22    58    1
    61    23    59    1
    62    23    60    1
    63    26    61    1
    64    26    62    1
    65    27    63    1
    66    27    64    1
    67    28    65    1
    68    28    66    1
    69    29    67    1
    70    29    68    1
    71    30    69    1
    72    30    70    1
@<TRIPOS>SUBSTRUCTURE
     1 RES1        1 GROUP             0 ****  ****    0  
@<TRIPOS>MOLECULE
47.621
    70    72     1     0     0
SMALL
NO_CHARGES
****
Generated from the CSD

@<TRIPOS>ATOM
     1 C      101.8823 100.3916  79.5370   C.ar      1 RES1   0.0000
     2 N      103.1126 100.5917  80.0636   N.ar      1 RES1   0.0000
     3 C      103.6438  99.7406  80.9662   C.ar      1 RES1   0.0000
     4 C      102.8703  98.6435  81.3353   C.ar      1 RES1   0.0000
     5 C      101.6117  98.4659  80.7824   C.ar      1 RES1   0.0000
     6 N      101.1172  99.3344  79.8842   N.ar      1 RES1   0.0000
     7 N      101.1111  97.3434  81.3263   N.ar      1 RES1   0.0000
     8 C      102.0150  96.8198  82.1795   C.ar      1 RES1   0.0000
     9 N      103.0965  97.6264  82.1870   N.ar      1 RES1   0.0000
    10 C       99.8944  96.7995  81.0446   C.3       1 RES1   0.0000
    11 C       99.4434  95.7750  82.1101   C.3       1 RES1   0.0000
    12 C       97.9575  96.1171  82.3541   C.3       1 RES1   0.0000
    13 C       97.6323  97.0996  81.2115   C.3       1 RES1   0.0000
    14 O       98.8706  97.7981  81.0675   O.3       1 RES1   0.0000
    15 C       96.4934  98.0800  81.5543   C.3       1 RES1   0.0000
    16 O       95.2537  97.5059  81.1306   O.3       1 RES1   0.0000
    17 P       94.0070  98.4360  80.7571   P.3       1 RES1   0.0000
    18 O       93.7145  99.3577  81.8906   O.2       1 RES1   0.0000
    19 O       94.3509  99.2918  79.4499   O.3       1 RES1   0.0000
    20 O       92.7351  97.5065  80.4701   O.3       1 RES1   0.0000
    21 P       91.4999  98.3670  79.9222   P.3       1 RES1   0.0000
    22 O       91.9495  99.1479  78.7356   O.2       1 RES1   0.0000
    23 O       91.0054  99.3827  81.0561   O.3       1 RES1   0.0000
    24 O       90.3019  97.3907  79.5010   O.3       1 RES1   0.0000
    25 P       89.8753  96.4198  80.7005   P.3       1 RES1   0.0000
    26 O       88.9057  95.3995  80.2120   O.2       1 RES1   0.0000
    27 O       89.1809  97.2826  81.8549   O.3       1 RES1   0.0000
    28 O       91.1685  95.6875  81.2932   O.3       1 RES1   0.0000
    29 O       97.1356  94.9446  82.3123   O.3       1 RES1   0.0000
    30 O       99.5841  94.4380  81.6153   O.3       1 RES1   0.0000
    31 N      104.8718  99.9406  81.4912   N.pl3     1 RES1   0.0000
    32 H1     101.4989 101.1021  78.8138   H         1 RES1   0.0000
    33 H2     101.8956  95.9110  82.7586   H         1 RES1   0.0000
    34 H3      99.8913  96.3238  80.0516   H         1 RES1   0.0000
    35 H4     100.0091  95.8961  83.0472   H         1 RES1   0.0000
    36 H5      97.8637  96.6311  83.3235   H         1 RES1   0.0000
    37 H6      97.4068  96.5416  80.2895   H         1 RES1   0.0000
    38 H7      96.4598  98.2725  82.6368   H         1 RES1   0.0000
    39 H8      96.6560  99.0269  81.0178   H         1 RES1   0.0000
    40 H9      93.5703  99.7450  79.1539   H         1 RES1   0.0000
    41 H10     91.4146  99.1653  81.8854   H         1 RES1   0.0000
    42 H11     89.8266  97.5116  82.5130   H         1 RES1   0.0000
    43 H12     91.3394  96.0067  82.1712   H         1 RES1   0.0000
    44 H13     96.7075  94.8672  81.4676   H         1 RES1   0.0000
    45 H14     99.2968  94.3878  80.7105   H         1 RES1   0.0000
    46 H15    105.4262 100.7594  81.2033   H         1 RES1   0.0000
    47 H16    105.2551  99.2764  82.1793   H         1 RES1   0.0000
    48 ****   103.6415 101.3904  79.7766   Du        1 RES1   0.0000
    49 ****   100.2100  99.2019  79.4850   Du        1 RES1   0.0000
    50 ****   103.9241  97.4915  82.7318   Du        1 RES1   0.0000
    51 ****    99.0097  98.4190  81.8390   Du        1 RES1   0.0000
    52 ****    98.8767  98.3200  80.2145   Du        1 RES1   0.0000
    53 ****    92.7796  99.4467  82.2342   Du        1 RES1   0.0000
    54 ****    94.4530  99.8873  82.3078   Du        1 RES1   0.0000
    55 ****    94.6760  98.6812  78.7277   Du        1 RES1   0.0000
    56 ****    95.0625  99.9601  79.6667   Du        1 RES1   0.0000
    57 ****    92.7070  98.8136  78.1748   Du        1 RES1   0.0000
    58 ****    91.4939 100.0063  78.5000   Du        1 RES1   0.0000
    59 ****    90.0119  99.3176  81.1494   Du        1 RES1   0.0000
    60 ****    91.2555 100.3158  80.7975   Du        1 RES1   0.0000
    61 ****    88.1805  95.6631  79.5758   Du        1 RES1   0.0000
    62 ****    88.9800  94.4511  80.5202   Du        1 RES1   0.0000
    63 ****    88.4504  96.7463  82.2777   Du        1 RES1   0.0000
    64 ****    88.7964  98.1174  81.4610   Du        1 RES1   0.0000
    65 ****    91.9573  95.8799  80.7093   Du        1 RES1   0.0000
    66 ****    91.0085  94.7008  81.3226   Du        1 RES1   0.0000
    67 ****    96.4408  95.0043  83.0289   Du        1 RES1   0.0000
    68 ****    97.7057  94.1377  82.4672   Du        1 RES1   0.0000
    69 ****    99.0287  93.8204  82.1721   Du        1 RES1   0.0000
    70 ****   100.5444  94.1650  81.6717   Du        1 RES1   0.0000
@<TRIPOS>BOND
     1     1     2   ar
     2     2     3   ar
     3     3     4   ar
     4     4     5   ar
     5     5     6   ar
     6     1     6   ar
     7     5     7   ar
     8     7     8   ar
     9     8     9   ar
    10     4     9   ar
    11     7    10    1
    12    10    11    1
    13    11    12    1
    14    12    13    1
    15    13    14    1
    16    10    14    1
    17    13    15    1
    18    15    16    1
    19    16    17    1
    20    17    18    2
    21    17    19    1
    22    17    20    1
    23    20    21    1
    24    21    22    2
    25    21    23    1
    26    21    24    1
    27    24    25    1
    28    25    26    2
    29    25    27    1
    30    25    28    1
    31    12    29    1
    32    11    30    1
    33     3    31    1
    34     1    32    1
    35     8    33    1
    36    10    34    1
    37    11    35    1
    38    12    36    1
    39    13    37    1
    40    15    38    1
    41    15    39    1
    42    19    40    1
    43    23    41    1
    44    27    42    1
    45    28    43    1
    46    29    44    1
    47    30    45    1
    48    31    46    1
    49    31    47    1
    50     2    48    1
    51     6    49    1
    52     9    50    1
    53    14    51    1
    54    14    52    1
    55    18    53    1
    56    18    54    1
    57    19    55    1
    58    19    56    1
    59    22    57    1
    60    22    58    1
    61    23    59    1
    62    23    60    1
    63    26    61    1
    64    26    62    1
    65    27    63    1
    66    27    64    1
    67    28    65    1
    68    28    66    1
    69    29    67    1
    70    29    68    1
    71    30    69    1
    72    30    70    1
@<TRIPOS>SUBSTRUCTURE
     1 RES1        1 GROUP             0 ****  ****    0  
@<TRIPOS>MOLECULE
47.2246
    70    72     1     0     0
SMALL
NO_CHARGES
****
Generated from the CSD

@<TRIPOS>ATOM
     1 C      101.5837 100.0858  77.2839   C.ar      1 RES1   0.0000
     2 N      102.2738 101.2442  77.3965   N.ar      1 RES1   0.0000
     3 C      102.8661 101.6063  78.5538   C.ar      1 RES1   0.0000
     4 C      102.7370 100.7352  79.6321   C.ar      1 RES1   0.0000
     5 C      102.0209  99.5571  79.4890   C.ar      1 RES1   0.0000
     6 N      101.4465  99.2296  78.3192   N.ar      1 RES1   0.0000
     7 N      102.0644  98.9371  80.6807   N.ar      1 RES1   0.0000
     8 C      102.7872  99.6800  81.5437   C.ar      1 RES1   0.0000
     9 N      103.1962 100.7906  80.8959   N.ar      1 RES1   0.0000
    10 C      101.4936  97.7347  80.9707   C.3       1 RES1   0.0000
    11 C      101.7385  97.3014  82.4338   C.3       1 RES1   0.0000
    12 C      100.3651  96.7750  82.9039   C.3       1 RES1   0.0000
    13 C       99.5555  96.6909  81.5946   C.3       1 RES1   0.0000
    14 O      100.0691  97.8061  80.8633   O.3       1 RES1   0.0000
    15 C       98.0355  96.8347  81.8058   C.3       1 RES1   0.0000
    16 O       97.5899  98.0134  81.1290   O.3       1 RES1   0.0000
    17 P       96.8019  97.9107  79.7407   P.3       1 RES1   0.0000
    18 O       97.6709  97.2598  78.7203   O.2       1 RES1   0.0000
    19 O       95.4742  97.0413  79.9424   O.3       1 RES1   0.0000
    20 O       96.4085  99.3861  79.2582   O.3       1 RES1   0.0000
    21 P       95.6326  99.3504  77.8572   P.3       1 RES1   0.0000
    22 O       96.3995 100.1547  76.8648   O.2       1 RES1   0.0000
    23 O       94.1760  99.9910  78.0313   O.3       1 RES1   0.0000
    24 O       95.5083  97.8385  77.3432   O.3       1 RES1   0.0000
    25 P       94.7899  97.7525  75.9148   P.3       1 RES1   0.0000
    26 O       94.3930  99.1145  75.4596   O.2       1 RES1   0.0000
    27 O       93.4778  96.8457  76.0391   O.3       1 RES1   0.0000
    28 O       95.7842  97.0998  74.8447   O.3       1 RES1   0.0000
    29 O      100.4845  95.5026  83.5510   O.3       1 RES1   0.0000
    30 O      102.7285  96.2677  82.4944   O.3       1 RES1   0.0000
    31 N      103.5550 102.7623  78.6655   N.pl3     1 RES1   0.0000
    32 H1     101.1266  99.8372  76.3331   H         1 RES1   0.0000
    33 H2     103.0027  99.4307  82.5766   H         1 RES1   0.0000
    34 H3     101.8531  96.9487  80.2887   H         1 RES1   0.0000
    35 H4     102.0406  98.1558  83.0596   H         1 RES1   0.0000
    36 H5      99.9082  97.5186  83.5756   H         1 RES1   0.0000
    37 H6      99.7925  95.7544  81.0663   H         1 RES1   0.0000
    38 H7      97.5038  95.9577  81.4080   H         1 RES1   0.0000
    39 H8      97.8265  96.9340  82.8816   H         1 RES1   0.0000
    40 H9      95.6915  96.1174  79.9015   H         1 RES1   0.0000
    41 H10     93.5171  99.3074  78.0029   H         1 RES1   0.0000
    42 H11     93.7235  95.9280  76.0328   H         1 RES1   0.0000
    43 H12     96.5853  97.6085  74.8044   H         1 RES1   0.0000
    44 H13    101.2683  95.4732  84.0873   H         1 RES1   0.0000
    45 H14    102.9515  96.0754  83.3983   H         1 RES1   0.0000
    46 H15    103.6373 103.3915  77.8543   H         1 RES1   0.0000
    47 H16    103.9980 103.0168  79.5603   H         1 RES1   0.0000
    48 ****   102.3467 101.8472  76.6021   Du        1 RES1   0.0000
    49 ****   100.9329  98.3775  78.2183   Du        1 RES1   0.0000
    50 ****   103.7462 101.5282  81.2876   Du        1 RES1   0.0000
    51 ****    99.7346  98.6622  81.2571   Du        1 RES1   0.0000
    52 ****    99.7909  97.7491  79.9044   Du        1 RES1   0.0000
    53 ****    98.0900  96.3726  78.9131   Du        1 RES1   0.0000
    54 ****    97.8349  97.7101  77.8427   Du        1 RES1   0.0000
    55 ****    94.8185  97.2618  79.2203   Du        1 RES1   0.0000
    56 ****    95.0713  97.2499  80.8335   Du        1 RES1   0.0000
    57 ****    95.9216 100.6088  76.1128   Du        1 RES1   0.0000
    58 ****    97.3921 100.2405  76.9507   Du        1 RES1   0.0000
    59 ****    94.0098 100.6428  77.2914   Du        1 RES1   0.0000
    60 ****    94.1249 100.4646  78.9105   Du        1 RES1   0.0000
    61 ****    94.4815  99.3650  74.4955   Du        1 RES1   0.0000
    62 ****    94.0381  99.7781  76.1181   Du        1 RES1   0.0000
    63 ****    92.8694  97.0328  75.2678   Du        1 RES1   0.0000
    64 ****    93.0060  97.0581  76.8949   Du        1 RES1   0.0000
    65 ****    95.3478  97.0936  73.9449   Du        1 RES1   0.0000
    66 ****    95.9984  96.1619  75.1177   Du        1 RES1   0.0000
    67 ****   100.5337  94.7841  82.8571   Du        1 RES1   0.0000
    68 ****    99.6836  95.3519  84.1306   Du        1 RES1   0.0000
    69 ****   103.5495  96.5689  82.0094   Du        1 RES1   0.0000
    70 ****   102.3693  95.4415  82.0606   Du        1 RES1   0.0000
@<TRIPOS>BOND
     1     1     2   ar
     2     2     3   ar
     3     3     4   ar
     4     4     5   ar
     5     5     6   ar
     6     1     6   ar
     7     5     7   ar
     8     7     8   ar
     9     8     9   ar
    10     4     9   ar
    11     7    10    1
    12    10    11    1
    13    11    12    1
    14    12    13    1
    15    13    14    1
    16    10    14    1
    17    13    15    1
    18    15    16    1
    19    16    17    1
    20    17    18    2
    21    17    19    1
    22    17    20    1
    23    20    21    1
    24    21    22    2
    25    21    23    1
    26    21    24    1
    27    24    25    1
    28    25    26    2
    29    25    27    1
    30    25    28    1
    31    12    29    1
    32    11    30    1
    33     3    31    1
    34     1    32    1
    35     8    33    1
    36    10    34    1
    37    11    35    1
    38    12    36    1
    39    13    37    1
    40    15    38    1
    41    15    39    1
    42    19    40    1
    43    23    41    1
    44    27    42    1
    45    28    43    1
    46    29    44    1
    47    30    45    1
    48    31    46    1
    49    31    47    1
    50     2    48    1
    51     6    49    1
    52     9    50    1
    53    14    51    1
    54    14    52    1
    55    18    53    1
    56    18    54    1
    57    19    55    1
    58    19    56    1
    59    22    57    1
    60    22    58    1
    61    23    59    1
    62    23    60    1
    63    26    61    1
    64    26    62    1
    65    27    63    1
    66    27    64    1
    67    28    65    1
    68    28    66    1
    69    29    67    1
    70    29    68    1
    71    30    69    1
    72    30    70    1
@<TRIPOS>SUBSTRUCTURE
     1 RES1        1 GROUP             0 ****  ****    0  
@<TRIPOS>MOLECULE
47.0123
    70    72     1     0     0
SMALL
NO_CHARGES
****
Generated from the CSD

@<TRIPOS>ATOM
     1 C      101.5504 100.1088  77.2528   C.ar      1 RES1   0.0000
     2 N      102.6970 100.8210  77.3464   N.ar      1 RES1   0.0000
     3 C      103.3247 101.0010  78.5275   C.ar      1 RES1   0.0000
     4 C      102.7410 100.4216  79.6507   C.ar      1 RES1   0.0000
     5 C      101.5639  99.7005  79.5256   C.ar      1 RES1   0.0000
     6 N      100.9690  99.5411  78.3313   N.ar      1 RES1   0.0000
     7 N      101.2441  99.2752  80.7598   N.ar      1 RES1   0.0000
     8 C      102.1822  99.6951  81.6332   C.ar      1 RES1   0.0000
     9 N      103.1011 100.4061  80.9473   N.ar      1 RES1   0.0000
    10 C      100.1594  98.5164  81.0813   C.3       1 RES1   0.0000
    11 C       99.4914  98.9680  82.3996   C.3       1 RES1   0.0000
    12 C       97.9806  98.9459  82.0812   C.3       1 RES1   0.0000
    13 C       97.9194  98.2168  80.7242   C.3       1 RES1   0.0000
    14 O       99.1271  98.6597  80.1017   O.3       1 RES1   0.0000
    15 C       96.6954  98.6100  79.8740   C.3       1 RES1   0.0000
    16 O       95.7375  99.2505  80.7214   O.3       1 RES1   0.0000
    17 P       94.3634  99.8113  80.1247   P.3       1 RES1   0.0000
    18 O       93.4261 100.1251  81.2396   O.2       1 RES1   0.0000
    19 O       94.6496 101.1393  79.2799   O.3       1 RES1   0.0000
    20 O       93.7201  98.6974  79.1710   O.3       1 RES1   0.0000
    21 P       93.1762  97.4518  80.0190   P.3       1 RES1   0.0000
    22 O       92.1753  97.9455  81.0062   O.2       1 RES1   0.0000
    23 O       94.3887  96.7655  80.8068   O.3       1 RES1   0.0000
    24 O       92.4865  96.3877  79.0403   O.3       1 RES1   0.0000
    25 P       91.8475  95.1623  79.8486   P.3       1 RES1   0.0000
    26 O       92.6148  93.9145  79.5758   O.2       1 RES1   0.0000
    27 O       90.3335  94.9523  79.3764   O.3       1 RES1   0.0000
    28 O       91.8735  95.4735  81.4178   O.3       1 RES1   0.0000
    29 O       97.2400  98.2617  83.0988   O.3       1 RES1   0.0000
    30 O       99.8022  98.0566  83.4603   O.3       1 RES1   0.0000
    31 N      104.4692 101.7116  78.6203   N.pl3     1 RES1   0.0000
    32 H1     101.0838  99.9901  76.2816   H         1 RES1   0.0000
    33 H2     102.1972  99.4974  82.6991   H         1 RES1   0.0000
    34 H3     100.4258  97.4502  81.1497   H         1 RES1   0.0000
    35 H4      99.7962  99.9902  82.6737   H         1 RES1   0.0000
    36 H5      97.6251  99.9814  81.9625   H         1 RES1   0.0000
    37 H6      97.9558  97.1277  80.8813   H         1 RES1   0.0000
    38 H7      96.9887  99.2954  79.0651   H         1 RES1   0.0000
    39 H8      96.2472  97.7027  79.4419   H         1 RES1   0.0000
    40 H9      95.4012 101.5911  79.6451   H         1 RES1   0.0000
    41 H10     94.8385  96.1528  80.2371   H         1 RES1   0.0000
    42 H11     89.9293  94.2691  79.8983   H         1 RES1   0.0000
    43 H12     90.9946  95.6754  81.7158   H         1 RES1   0.0000
    44 H13     97.6788  97.4560  83.3462   H         1 RES1   0.0000
    45 H14    100.6508  98.2626  83.8359   H         1 RES1   0.0000
    46 H15    104.8830 102.1314  77.7757   H         1 RES1   0.0000
    47 H16    104.9292 101.8353  79.5339   H         1 RES1   0.0000
    48 ****   103.0893 101.2241  76.5195   Du        1 RES1   0.0000
    49 ****   100.1213  99.0179  78.2439   Du        1 RES1   0.0000
    50 ****   103.9108 100.8460  81.3358   Du        1 RES1   0.0000
    51 ****    99.0430  99.6169  79.8247   Du        1 RES1   0.0000
    52 ****    99.3299  98.0974  79.3000   Du        1 RES1   0.0000
    53 ****    93.4436 101.0284  81.6684   Du        1 RES1   0.0000
    54 ****    92.7795  99.4324  81.5592   Du        1 RES1   0.0000
    55 ****    93.8496 101.7380  79.3186   Du        1 RES1   0.0000
    56 ****    94.8374 100.8951  78.3285   Du        1 RES1   0.0000
    57 ****    92.2191  97.6408  81.9577   Du        1 RES1   0.0000
    58 ****    91.4596  98.5814  80.7173   Du        1 RES1   0.0000
    59 ****    94.0324  96.2772  81.6036   Du        1 RES1   0.0000
    60 ****    95.0303  97.4710  81.1077   Du        1 RES1   0.0000
    61 ****    93.3883  93.6657  80.1587   Du        1 RES1   0.0000
    62 ****    92.3562  93.3259  78.8099   Du        1 RES1   0.0000
    63 ****    90.3191  94.6873  78.4122   Du        1 RES1   0.0000
    64 ****    89.8263  95.8059  79.4950   Du        1 RES1   0.0000
    65 ****    92.4723  96.2551  81.5925   Du        1 RES1   0.0000
    66 ****    92.2169  94.6739  81.9104   Du        1 RES1   0.0000
    67 ****    96.3271  98.0459  82.7523   Du        1 RES1   0.0000
    68 ****    97.1608  98.8528  83.9015   Du        1 RES1   0.0000
    69 ****    99.8191  97.1242  83.0993   Du        1 RES1   0.0000
    70 ****    99.1017  98.1264  84.1705   Du        1 RES1   0.0000
@<TRIPOS>BOND
     1     1     2   ar
     2     2     3   ar
     3     3     4   ar
     4     4     5   ar
     5     5     6   ar
     6     1     6   ar
     7     5     7   ar
     8     7     8   ar
     9     8     9   ar
    10     4     9   ar
    11     7    10    1
    12    10    11    1
    13    11    12    1
    14    12    13    1
    15    13    14    1
    16    10    14    1
    17    13    15    1
    18    15    16    1
    19    16    17    1
    20    17    18    2
    21    17    19    1
    22    17    20    1
    23    20    21    1
    24    21    22    2
    25    21    23    1
    26    21    24    1
    27    24    25    1
    28    25    26    2
    29    25    27    1
    30    25    28    1
    31    12    29    1
    32    11    30    1
    33     3    31    1
    34     1    32    1
    35     8    33    1
    36    10    34    1
    37    11    35    1
    38    12    36    1
    39    13    37    1
    40    15    38    1
    41    15    39    1
    42    19    40    1
    43    23    41    1
    44    27    42    1
    45    28    43    1
    46    29    44    1
    47    30    45    1
    48    31    46    1
    49    31    47    1
    50     2    48    1
    51     6    49    1
    52     9    50    1
    53    14    51    1
    54    14    52    1
    55    18    53    1
    56    18    54    1
    57    19    55    1
    58    19    56    1
    59    22    57    1
    60    22    58    1
    61    23    59    1
    62    23    60    1
    63    26    61    1
    64    26    62    1
    65    27    63    1
    66    27    64    1
    67    28    65    1
    68    28    66    1
    69    29    67    1
    70    29    68    1
    71    30    69    1
    72    30    70    1
@<TRIPOS>SUBSTRUCTURE
     1 RES1        1 GROUP             0 ****  ****    0  
@<TRIPOS>MOLECULE
46.9545
    70    72     1     0     0
SMALL
NO_CHARGES
****
Generated from the CSD

@<TRIPOS>ATOM
     1 C      103.3604 101.7080  80.3215   C.ar      1 RES1   0.0000
     2 N      104.6109 101.6549  80.8356   N.ar      1 RES1   0.0000
     3 C      105.1245 100.5102  81.3327   C.ar      1 RES1   0.0000
     4 C      104.3109  99.3811  81.2952   C.ar      1 RES1   0.0000
     5 C      103.0325  99.4658  80.7663   C.ar      1 RES1   0.0000
     6 N      102.5565 100.6238  80.2783   N.ar      1 RES1   0.0000
     7 N      102.4945  98.2385  80.8704   N.ar      1 RES1   0.0000
     8 C      103.3940  97.4034  81.4294   C.ar      1 RES1   0.0000
     9 N      104.5111  98.1118  81.6951   N.ar      1 RES1   0.0000
    10 C      101.2477  97.8809  80.4542   C.3       1 RES1   0.0000
    11 C      100.4330  97.1778  81.5633   C.3       1 RES1   0.0000
    12 C       99.0338  97.8240  81.4677   C.3       1 RES1   0.0000
    13 C       99.1021  98.6127  80.1448   C.3       1 RES1   0.0000
    14 O      100.4674  99.0344  80.1281   O.3       1 RES1   0.0000
    15 C       98.1580  99.8305  80.1102   C.3       1 RES1   0.0000
    16 O       97.8366 100.1204  78.7469   O.3       1 RES1   0.0000
    17 P       96.4577  99.6213  78.1077   P.3       1 RES1   0.0000
    18 O       95.9338 100.6603  77.1771   O.2       1 RES1   0.0000
    19 O       96.7028  98.2605  77.3032   O.3       1 RES1   0.0000
    20 O       95.4036  99.3654  79.2857   O.3       1 RES1   0.0000
    21 P       93.9793  98.9208  78.7028   P.3       1 RES1   0.0000
    22 O       94.1686  98.4066  77.3172   O.2       1 RES1   0.0000
    23 O       92.9967 100.1836  78.6590   O.3       1 RES1   0.0000
    24 O       93.3511  97.7695  79.6224   O.3       1 RES1   0.0000
    25 P       93.1633  98.2536  81.1370   P.3       1 RES1   0.0000
    26 O       93.8833  99.5395  81.3555   O.2       1 RES1   0.0000
    27 O       93.7685  97.1478  82.1221   O.3       1 RES1   0.0000
    28 O       91.6079  98.4510  81.4556   O.3       1 RES1   0.0000
    29 O       97.9985  96.8340  81.4567   O.3       1 RES1   0.0000
    30 O      100.3611  95.7680  81.3193   O.3       1 RES1   0.0000
    31 N      106.3727 100.4577  81.8453   N.pl3     1 RES1   0.0000
    32 H1     102.9923 102.6502  79.9323   H         1 RES1   0.0000
    33 H2     103.2473  96.3482  81.6310   H         1 RES1   0.0000
    34 H3     101.2955  97.2329  79.5653   H         1 RES1   0.0000
    35 H4     100.8618  97.3709  82.5592   H         1 RES1   0.0000
    36 H5      98.9042  98.5219  82.3097   H         1 RES1   0.0000
    37 H6      98.9069  97.9392  79.2959   H         1 RES1   0.0000
    38 H7      97.2346  99.6218  80.6704   H         1 RES1   0.0000
    39 H8      98.6686 100.6982  80.5542   H         1 RES1   0.0000
    40 H9      97.5638  98.2802  76.9025   H         1 RES1   0.0000
    41 H10     93.1093 100.7078  79.4431   H         1 RES1   0.0000
    42 H11     93.6663  97.4337  83.0223   H         1 RES1   0.0000
    43 H12     91.3548  97.8770  82.1688   H         1 RES1   0.0000
    44 H13     98.1911  96.1568  80.8186   H         1 RES1   0.0000
    45 H14    100.6368  95.5712  80.4311   H         1 RES1   0.0000
    46 H15    106.9567 101.3058  81.8627   H         1 RES1   0.0000
    47 H16    106.7419  99.5715  82.2194   H         1 RES1   0.0000
    48 ****   105.1686 102.4849  80.8474   Du        1 RES1   0.0000
    49 ****   101.6347 100.6810  79.8948   Du        1 RES1   0.0000
    50 ****   105.3447  97.7550  82.1167   Du        1 RES1   0.0000
    51 ****   100.6154  99.7553  80.8051   Du        1 RES1   0.0000
    52 ****   100.7138  99.3738  79.2203   Du        1 RES1   0.0000
    53 ****    94.9642 100.6694  76.9326   Du        1 RES1   0.0000
    54 ****    96.5518 101.3485  76.7970   Du        1 RES1   0.0000
    55 ****    96.0063  98.1635  76.5922   Du        1 RES1   0.0000
    56 ****    96.6459  97.4859  77.9332   Du        1 RES1   0.0000
    57 ****    94.9675  98.6865  76.7848   Du        1 RES1   0.0000
    58 ****    93.4967  97.7817  76.9196   Du        1 RES1   0.0000
    59 ****    92.0501  99.8656  78.6057   Du        1 RES1   0.0000
    60 ****    93.2072 100.7399  77.8551   Du        1 RES1   0.0000
    61 ****    93.9301 100.2174  80.6218   Du        1 RES1   0.0000
    62 ****    94.3197  99.7249  82.2360   Du        1 RES1   0.0000
    63 ****    94.7398  97.0193  81.9218   Du        1 RES1   0.0000
    64 ****    93.2837  96.2832  81.9902   Du        1 RES1   0.0000
    65 ****    91.0703  98.2287  80.6422   Du        1 RES1   0.0000
    66 ****    91.4393  99.4014  81.7171   Du        1 RES1   0.0000
    67 ****    97.1295  97.2695  81.2218   Du        1 RES1   0.0000
    68 ****    97.9293  96.4203  82.3645   Du        1 RES1   0.0000
    69 ****    99.4188  95.4589  81.4480   Du        1 RES1   0.0000
    70 ****   100.9592  95.2911  81.9634   Du        1 RES1   0.0000
@<TRIPOS>BOND
     1     1     2   ar
     2     2     3   ar
     3     3     4   ar
     4     4     5   ar
     5     5     6   ar
     6     1     6   ar
     7     5     7   ar
     8     7     8   ar
     9     8     9   ar
    10     4     9   ar
    11     7    10    1
    12    10    11    1
    13    11    12    1
    14    12    13    1
    15    13    14    1
    16    10    14    1
    17    13    15    1
    18    15    16    1
    19    16    17    1
    20    17    18    2
    21    17    19    1
    22    17    20    1
    23    20    21    1
    24    21    22    2
    25    21    23    1
    26    21    24    1
    27    24    25    1
    28    25    26    2
    29    25    27    1
    30    25    28    1
    31    12    29    1
    32    11    30    1
    33     3    31    1
    34     1    32    1
    35     8    33    1
    36    10    34    1
    37    11    35    1
    38    12    36    1
    39    13    37    1
    40    15    38    1
    41    15    39    1
    42    19    40    1
    43    23    41    1
    44    27    42    1
    45    28    43    1
    46    29    44    1
    47    30    45    1
    48    31    46    1
    49    31    47    1
    50     2    48    1
    51     6    49    1
    52     9    50    1
    53    14    51    1
    54    14    52    1
    55    18    53    1
    56    18    54    1
    57    19    55    1
    58    19    56    1
    59    22    57    1
    60    22    58    1
    61    23    59    1
    62    23    60    1
    63    26    61    1
    64    26    62    1
    65    27    63    1
    66    27    64    1
    67    28    65    1
    68    28    66    1
    69    29    67    1
    70    29    68    1
    71    30    69    1
    72    30    70    1
@<TRIPOS>SUBSTRUCTURE
     1 RES1        1 GROUP             0 ****  ****    0  
@<TRIPOS>MOLECULE
46.1814
    70    72     1     0     0
SMALL
NO_CHARGES
****
Generated from the CSD

@<TRIPOS>ATOM
     1 C       98.3731  94.3970  81.8995   C.ar      1 RES1   0.0000
     2 N       99.3038  93.7706  82.6559   N.ar      1 RES1   0.0000
     3 C      100.1362  94.4566  83.4670   C.ar      1 RES1   0.0000
     4 C       99.9976  95.8416  83.4932   C.ar      1 RES1   0.0000
     5 C       99.0379  96.4567  82.7047   C.ar      1 RES1   0.0000
     6 N       98.2253  95.7392  81.9106   N.ar      1 RES1   0.0000
     7 N       99.1449  97.7768  82.9337   N.ar      1 RES1   0.0000
     8 C      100.1212  97.9947  83.8384   C.ar      1 RES1   0.0000
     9 N      100.6487  96.8001  84.1776   N.ar      1 RES1   0.0000
    10 C       98.3739  98.7456  82.3658   C.3       1 RES1   0.0000
    11 C       98.6885  98.9485  80.8664   C.3       1 RES1   0.0000
    12 C       97.2983  99.0564  80.2028   C.3       1 RES1   0.0000
    13 C       96.3453  99.1931  81.4069   C.3       1 RES1   0.0000
    14 O       96.9924  98.3754  82.3840   O.3       1 RES1   0.0000
    15 C       94.9223  98.6739  81.1218   C.3       1 RES1   0.0000
    16 O       94.3316  99.4934  80.1092   O.3       1 RES1   0.0000
    17 P       92.9328  99.0919  79.4452   P.3       1 RES1   0.0000
    18 O       93.1265  98.8336  77.9906   O.2       1 RES1   0.0000
    19 O       92.3655  97.7723  80.1496   O.3       1 RES1   0.0000
    20 O       91.8976 100.2963  79.6501   O.3       1 RES1   0.0000
    21 P       90.4608  99.9362  79.0399   P.3       1 RES1   0.0000
    22 O       90.6122  99.6758  77.5807   O.2       1 RES1   0.0000
    23 O       89.4626 101.1702  79.2470   O.3       1 RES1   0.0000
    24 O       89.8756  98.6312  79.7612   O.3       1 RES1   0.0000
    25 P       89.6386  98.8718  81.3263   P.3       1 RES1   0.0000
    26 O       88.7099 100.0186  81.5321   O.2       1 RES1   0.0000
    27 O       91.0379  99.2073  82.0254   O.3       1 RES1   0.0000
    28 O       89.0178  97.5554  81.9907   O.3       1 RES1   0.0000
    29 O       97.2240 100.1829  79.3210   O.3       1 RES1   0.0000
    30 O       99.4428 100.1500  80.6676   O.3       1 RES1   0.0000
    31 N      101.0647  93.8309  84.2220   N.pl3     1 RES1   0.0000
    32 H1      97.7259  93.8029  81.2646   H         1 RES1   0.0000
    33 H2     100.4297  98.9591  84.2260   H         1 RES1   0.0000
    34 H3      98.4825  99.7035  82.8977   H         1 RES1   0.0000
    35 H4      99.2305  98.0849  80.4501   H         1 RES1   0.0000
    36 H5      97.0852  98.1191  79.6653   H         1 RES1   0.0000
    37 H6      96.3212 100.2392  81.7494   H         1 RES1   0.0000
    38 H7      94.9519  97.6289  80.7797   H         1 RES1   0.0000
    39 H8      94.3203  98.7428  82.0403   H         1 RES1   0.0000
    40 H9      91.5922  97.9913  80.6560   H         1 RES1   0.0000
    41 H10     88.6820 101.0462  78.7202   H         1 RES1   0.0000
    42 H11     91.2930  98.4862  82.5888   H         1 RES1   0.0000
    43 H12     89.6946  97.0928  82.4705   H         1 RES1   0.0000
    44 H13     97.0502 100.9787  79.8102   H         1 RES1   0.0000
    45 H14    100.3723  99.9549  80.6287   H         1 RES1   0.0000
    46 H15    101.1492  92.8051  84.1864   H         1 RES1   0.0000
    47 H16    101.6890  94.3772  84.8330   H         1 RES1   0.0000
    48 ****    99.3767  92.7742  82.6128   Du        1 RES1   0.0000
    49 ****    97.5319  96.1858  81.3451   Du        1 RES1   0.0000
    50 ****   101.3954  96.6523  84.8262   Du        1 RES1   0.0000
    51 ****    96.8898  97.4088  82.1494   Du        1 RES1   0.0000
    52 ****    96.6012  98.5422  83.2890   Du        1 RES1   0.0000
    53 ****    92.8964  97.9394  77.6066   Du        1 RES1   0.0000
    54 ****    93.4867  99.5544  77.3984   Du        1 RES1   0.0000
    55 ****    93.0640  97.3913  80.7554   Du        1 RES1   0.0000
    56 ****    92.1265  97.0980  79.4509   Du        1 RES1   0.0000
    57 ****    91.2041 100.2616  77.0270   Du        1 RES1   0.0000
    58 ****    90.1219  98.9153  77.1550   Du        1 RES1   0.0000
    59 ****    89.9188 102.0159  78.9699   Du        1 RES1   0.0000
    60 ****    89.2057 101.2307  80.2115   Du        1 RES1   0.0000
    61 ****    88.8782 100.8880  81.0675   Du        1 RES1   0.0000
    62 ****    87.9182  99.9189  82.1349   Du        1 RES1   0.0000
    63 ****    90.9461 100.0400  82.5714   Du        1 RES1   0.0000
    64 ****    91.7365  99.3445  81.3231   Du        1 RES1   0.0000
    65 ****    88.6521  96.9613  81.2743   Du        1 RES1   0.0000
    66 ****    88.2824  97.8135  82.6173   Du        1 RES1   0.0000
    67 ****    96.4878 100.0355  78.6605   Du        1 RES1   0.0000
    68 ****    98.0931 100.2785  78.8356   Du        1 RES1   0.0000
    69 ****    99.2693 100.7775  81.4267   Du        1 RES1   0.0000
    70 ****    99.1599 100.5786  79.8095   Du        1 RES1   0.0000
@<TRIPOS>BOND
     1     1     2   ar
     2     2     3   ar
     3     3     4   ar
     4     4     5   ar
     5     5     6   ar
     6     1     6   ar
     7     5     7   ar
     8     7     8   ar
     9     8     9   ar
    10     4     9   ar
    11     7    10    1
    12    10    11    1
    13    11    12    1
    14    12    13    1
    15    13    14    1
    16    10    14    1
    17    13    15    1
    18    15    16    1
    19    16    17    1
    20    17    18    2
    21    17    19    1
    22    17    20    1
    23    20    21    1
    24    21    22    2
    25    21    23    1
    26    21    24    1
    27    24    25    1
    28    25    26    2
    29    25    27    1
    30    25    28    1
    31    12    29    1
    32    11    30    1
    33     3    31    1
    34     1    32    1
    35     8    33    1
    36    10    34    1
    37    11    35    1
    38    12    36    1
    39    13    37    1
    40    15    38    1
    41    15    39    1
    42    19    40    1
    43    23    41    1
    44    27    42    1
    45    28    43    1
    46    29    44    1
    47    30    45    1
    48    31    46    1
    49    31    47    1
    50     2    48    1
    51     6    49    1
    52     9    50    1
    53    14    51    1
    54    14    52    1
    55    18    53    1
    56    18    54    1
    57    19    55    1
    58    19    56    1
    59    22    57    1
    60    22    58    1
    61    23    59    1
    62    23    60    1
    63    26    61    1
    64    26    62    1
    65    27    63    1
    66    27    64    1
    67    28    65    1
    68    28    66    1
    69    29    67    1
    70    29    68    1
    71    30    69    1
    72    30    70    1
@<TRIPOS>SUBSTRUCTURE
     1 RES1        1 GROUP             0 ****  ****    0  
@<TRIPOS>MOLECULE
44.4926
    70    72     1     0     0
SMALL
NO_CHARGES
****
Generated from the CSD

@<TRIPOS>ATOM
     1 C      101.6480 100.6055  77.1096   C.ar      1 RES1   0.0000
     2 N      102.5271 101.5653  77.4795   N.ar      1 RES1   0.0000
     3 C      102.9918 101.6512  78.7436   C.ar      1 RES1   0.0000
     4 C      102.5269 100.7077  79.6557   C.ar      1 RES1   0.0000
     5 C      101.6234  99.7382  79.2496   C.ar      1 RES1   0.0000
     6 N      101.1849  99.6834  77.9806   N.ar      1 RES1   0.0000
     7 N      101.3575  98.9872  80.3321   N.ar      1 RES1   0.0000
     8 C      102.0694  99.4486  81.3807   C.ar      1 RES1   0.0000
     9 N      102.7855 100.5127  80.9619   N.ar      1 RES1   0.0000
    10 C      100.5225  97.9115  80.3658   C.3       1 RES1   0.0000
    11 C      100.6351  97.1165  81.6862   C.3       1 RES1   0.0000
    12 C       99.1694  96.8225  82.0733   C.3       1 RES1   0.0000
    13 C       98.3863  97.2203  80.8063   C.3       1 RES1   0.0000
    14 O       99.1539  98.3254  80.3252   O.3       1 RES1   0.0000
    15 C       96.9354  97.6528  81.0954   C.3       1 RES1   0.0000
    16 O       96.8152  99.0533  80.8310   O.3       1 RES1   0.0000
    17 P       96.2196  99.5750  79.4411   P.3       1 RES1   0.0000
    18 O       94.9551 100.3230  79.6890   O.2       1 RES1   0.0000
    19 O       97.2803 100.5415  78.7338   O.3       1 RES1   0.0000
    20 O       95.9295  98.3149  78.4965   O.3       1 RES1   0.0000
    21 P       94.3644  98.1704  78.1869   P.3       1 RES1   0.0000
    22 O       93.9296  99.3348  77.3653   O.2       1 RES1   0.0000
    23 O       93.5415  98.1664  79.5597   O.3       1 RES1   0.0000
    24 O       94.0929  96.8127  77.3815   O.3       1 RES1   0.0000
    25 P       92.9662  95.9185  78.0847   P.3       1 RES1   0.0000
    26 O       91.6668  96.6476  78.0935   O.2       1 RES1   0.0000
    27 O       93.4001  95.6163  79.5946   O.3       1 RES1   0.0000
    28 O       92.7983  94.5365  77.2962   O.3       1 RES1   0.0000
    29 O       98.9838  95.4440  82.4158   O.3       1 RES1   0.0000
    30 O      101.3622  95.8993  81.4814   O.3       1 RES1   0.0000
    31 N      103.8694 102.6090  79.1122   N.pl3     1 RES1   0.0000
    32 H1     101.3046 100.5759  76.0819   H         1 RES1   0.0000
    33 H2     102.0679  99.0383  82.3842   H         1 RES1   0.0000
    34 H3     100.7058  97.2385  79.5139   H         1 RES1   0.0000
    35 H4     101.1125  97.7172  82.4763   H         1 RES1   0.0000
    36 H5      98.8818  97.4795  82.9089   H         1 RES1   0.0000
    37 H6      98.4133  96.3978  80.0747   H         1 RES1   0.0000
    38 H7      96.2306  97.0958  80.4606   H         1 RES1   0.0000
    39 H8      96.7045  97.4631  82.1545   H         1 RES1   0.0000
    40 H9      97.0781 101.4445  78.9486   H         1 RES1   0.0000
    41 H10     93.8896  97.5025  80.1431   H         1 RES1   0.0000
    42 H11     94.2135  95.1254  79.5996   H         1 RES1   0.0000
    43 H12     92.3307  94.6896  76.4837   H         1 RES1   0.0000
    44 H13     98.3580  95.0357  81.8288   H         1 RES1   0.0000
    45 H14    101.3468  95.6549  80.5629   H         1 RES1   0.0000
    46 H15    104.1997 103.2966  78.4202   H         1 RES1   0.0000
    47 H16    104.2090 102.6539  80.0839   H         1 RES1   0.0000
    48 ****   102.8405 102.2276  76.7989   Du        1 RES1   0.0000
    49 ****   100.5353  98.9809  77.6900   Du        1 RES1   0.0000
    50 ****   103.4024 101.0621  81.5254   Du        1 RES1   0.0000
    51 ****    99.0161  99.1240  80.9111   Du        1 RES1   0.0000
    52 ****    98.8878  98.5500  79.3877   Du        1 RES1   0.0000
    53 ****    94.8937 101.2930  79.4539   Du        1 RES1   0.0000
    54 ****    94.1678  99.8550  80.0904   Du        1 RES1   0.0000
    55 ****    97.2361 100.4166  77.7427   Du        1 RES1   0.0000
    56 ****    98.2004 100.3201  79.0570   Du        1 RES1   0.0000
    57 ****    94.2012 100.2609  77.6273   Du        1 RES1   0.0000
    58 ****    93.3662  99.1903  76.5518   Du        1 RES1   0.0000
    59 ****    92.5797  97.9694  79.3693   Du        1 RES1   0.0000
    60 ****    93.6181  99.0635  79.9949   Du        1 RES1   0.0000
    61 ****    91.6310  97.6020  78.3899   Du        1 RES1   0.0000
    62 ****    90.8305  96.1825  77.8031   Du        1 RES1   0.0000
    63 ****    92.6856  95.0814  80.0456   Du        1 RES1   0.0000
    64 ****    93.5290  96.4793  80.0831   Du        1 RES1   0.0000
    65 ****    92.2833  93.8914  77.8605   Du        1 RES1   0.0000
    66 ****    93.7009  94.1562  77.0945   Du        1 RES1   0.0000
    67 ****    98.6439  95.3812  83.3541   Du        1 RES1   0.0000
    68 ****    99.8599  94.9669  82.3460   Du        1 RES1   0.0000
    69 ****   100.9440  95.1704  82.0234   Du        1 RES1   0.0000
    70 ****   102.3102  96.0287  81.7721   Du        1 RES1   0.0000
@<TRIPOS>BOND
     1     1     2   ar
     2     2     3   ar
     3     3     4   ar
     4     4     5   ar
     5     5     6   ar
     6     1     6   ar
     7     5     7   ar
     8     7     8   ar
     9     8     9   ar
    10     4     9   ar
    11     7    10    1
    12    10    11    1
    13    11    12    1
    14    12    13    1
    15    13    14    1
    16    10    14    1
    17    13    15    1
    18    15    16    1
    19    16    17    1
    20    17    18    2
    21    17    19    1
    22    17    20    1
    23    20    21    1
    24    21    22    2
    25    21    23    1
    26    21    24    1
    27    24    25    1
    28    25    26    2
    29    25    27    1
    30    25    28    1
    31    12    29    1
    32    11    30    1
    33     3    31    1
    34     1    32    1
    35     8    33    1
    36    10    34    1
    37    11    35    1
    38    12    36    1
    39    13    37    1
    40    15    38    1
    41    15    39    1
    42    19    40    1
    43    23    41    1
    44    27    42    1
    45    28    43    1
    46    29    44    1
    47    30    45    1
    48    31    46    1
    49    31    47    1
    50     2    48    1
    51     6    49    1
    52     9    50    1
    53    14    51    1
    54    14    52    1
    55    18    53    1
    56    18    54    1
    57    19    55    1
    58    19    56    1
    59    22    57    1
    60    22    58    1
    61    23    59    1
    62    23    60    1
    63    26    61    1
    64    26    62    1
    65    27    63    1
    66    27    64    1
    67    28    65    1
    68    28    66    1
    69    29    67    1
    70    29    68    1
    71    30    69    1
    72    30    70    1
@<TRIPOS>SUBSTRUCTURE
     1 RES1        1 GROUP             0 ****  ****    0  
@<TRIPOS>MOLECULE
44.1647
    70    72     1     0     0
SMALL
NO_CHARGES
****
Generated from the CSD

@<TRIPOS>ATOM
     1 C       94.7896  94.7416  84.2609   C.ar      1 RES1   0.0000
     2 N       94.9090  93.4334  84.5854   N.ar      1 RES1   0.0000
     3 C       95.9597  92.6941  84.1722   C.ar      1 RES1   0.0000
     4 C       96.9198  93.3355  83.3945   C.ar      1 RES1   0.0000
     5 C       96.7695  94.6757  83.0743   C.ar      1 RES1   0.0000
     6 N       95.7097  95.3798  83.5063   N.ar      1 RES1   0.0000
     7 N       97.8316  95.0094  82.3211   N.ar      1 RES1   0.0000
     8 C       98.6318  93.9333  82.1771   C.ar      1 RES1   0.0000
     9 N       98.0645  92.9013  82.8355   N.ar      1 RES1   0.0000
    10 C       98.0808  96.2447  81.8041   C.3       1 RES1   0.0000
    11 C       98.9683  96.1888  80.5402   C.3       1 RES1   0.0000
    12 C       98.2910  97.1735  79.5624   C.3       1 RES1   0.0000
    13 C       97.2653  97.9019  80.4536   C.3       1 RES1   0.0000
    14 O       96.8725  96.8633  81.3531   O.3       1 RES1   0.0000
    15 C       96.0467  98.4332  79.6736   C.3       1 RES1   0.0000
    16 O       95.4454  99.4882  80.4295   O.3       1 RES1   0.0000
    17 P       93.8548  99.6472  80.4897   P.3       1 RES1   0.0000
    18 O       93.3927  99.5137  81.9000   O.2       1 RES1   0.0000
    19 O       93.4395 101.0861  79.9271   O.3       1 RES1   0.0000
    20 O       93.1857  98.5055  79.5881   O.3       1 RES1   0.0000
    21 P       91.5896  98.5202  79.7240   P.3       1 RES1   0.0000
    22 O       91.1352  97.1744  80.1740   O.2       1 RES1   0.0000
    23 O       90.9305  98.8428  78.3015   O.3       1 RES1   0.0000
    24 O       91.1457  99.6241  80.7965   O.3       1 RES1   0.0000
    25 P       89.5552  99.6770  80.9728   P.3       1 RES1   0.0000
    26 O       89.0434  98.3435  81.3970   O.2       1 RES1   0.0000
    27 O       88.8831 100.0683  79.5748   O.3       1 RES1   0.0000
    28 O       89.1662 100.7730  82.0716   O.3       1 RES1   0.0000
    29 O       99.2420  98.0739  78.9820   O.3       1 RES1   0.0000
    30 O      100.3040  96.6091  80.8431   O.3       1 RES1   0.0000
    31 N       96.0786  91.3887  84.4966   N.pl3     1 RES1   0.0000
    32 H1      93.9284  95.2945  84.6178   H         1 RES1   0.0000
    33 H2      99.5667  93.9009  81.6290   H         1 RES1   0.0000
    34 H3      98.5477  96.9029  82.5532   H         1 RES1   0.0000
    35 H4      98.9769  95.1790  80.1008   H         1 RES1   0.0000
    36 H5      97.7647  96.5990  78.7841   H         1 RES1   0.0000
    37 H6      97.7604  98.7128  81.0099   H         1 RES1   0.0000
    38 H7      96.3527  98.8139  78.6880   H         1 RES1   0.0000
    39 H8      95.3170  97.6201  79.5428   H         1 RES1   0.0000
    40 H9      92.6167 101.0169  79.4574   H         1 RES1   0.0000
    41 H10     90.3429  99.5851  78.3786   H         1 RES1   0.0000
    42 H11     88.1810 100.6911  79.7226   H         1 RES1   0.0000
    43 H12     89.3259 100.4224  82.9398   H         1 RES1   0.0000
    44 H13     99.2570  97.9795  78.0366   H         1 RES1   0.0000
    45 H14    100.9029  96.3257  80.1615   H         1 RES1   0.0000
    46 H15     95.3558  90.9349  85.0732   H         1 RES1   0.0000
    47 H16     96.8902  90.8454  84.1684   H         1 RES1   0.0000
    48 ****    94.2008  93.0036  85.1455   Du        1 RES1   0.0000
    49 ****    95.6056  96.3474  83.2760   Du        1 RES1   0.0000
    50 ****    98.4315  91.9732  82.8976   Du        1 RES1   0.0000
    51 ****    96.2970  96.1955  80.8809   Du        1 RES1   0.0000
    52 ****    96.3702  97.2476  82.1277   Du        1 RES1   0.0000
    53 ****    93.2742  98.6065  82.3035   Du        1 RES1   0.0000
    54 ****    93.2011 100.3314  82.4429   Du        1 RES1   0.0000
    55 ****    94.1501 101.4196  79.3076   Du        1 RES1   0.0000
    56 ****    93.3354 101.7248  80.6895   Du        1 RES1   0.0000
    57 ****    90.2536  97.0727  80.6350   Du        1 RES1   0.0000
    58 ****    91.7117  96.3730  80.0150   Du        1 RES1   0.0000
    59 ****    90.4171  98.0450  77.9853   Du        1 RES1   0.0000
    60 ****    91.6516  99.0576  77.6429   Du        1 RES1   0.0000
    61 ****    89.0107  98.1062  82.3678   Du        1 RES1   0.0000
    62 ****    88.7325  97.6859  80.7108   Du        1 RES1   0.0000
    63 ****    88.5134  99.2465  79.1414   Du        1 RES1   0.0000
    64 ****    89.5721 100.4789  78.9775   Du        1 RES1   0.0000
    65 ****    88.1985 101.0078  81.9799   Du        1 RES1   0.0000
    66 ****    89.7225 101.5928  81.9358   Du        1 RES1   0.0000
    67 ****   100.1510  97.8724  79.3470   Du        1 RES1   0.0000
    68 ****    98.9901  99.0133  79.2148   Du        1 RES1   0.0000
    69 ****   100.5852  96.2098  81.7158   Du        1 RES1   0.0000
    70 ****   100.3286  97.6065  80.9096   Du        1 RES1   0.0000
@<TRIPOS>BOND
     1     1     2   ar
     2     2     3   ar
     3     3     4   ar
     4     4     5   ar
     5     5     6   ar
     6     1     6   ar
     7     5     7   ar
     8     7     8   ar
     9     8     9   ar
    10     4     9   ar
    11     7    10    1
    12    10    11    1
    13    11    12    1
    14    12    13    1
    15    13    14    1
    16    10    14    1
    17    13    15    1
    18    15    16    1
    19    16    17    1
    20    17    18    2
    21    17    19    1
    22    17    20    1
    23    20    21    1
    24    21    22    2
    25    21    23    1
    26    21    24    1
    27    24    25    1
    28    25    26    2
    29    25    27    1
    30    25    28    1
    31    12    29    1
    32    11    30    1
    33     3    31    1
    34     1    32    1
    35     8    33    1
    36    10    34    1
    37    11    35    1
    38    12    36    1
    39    13    37    1
    40    15    38    1
    41    15    39    1
    42    19    40    1
    43    23    41    1
    44    27    42    1
    45    28    43    1
    46    29    44    1
    47    30    45    1
    48    31    46    1
    49    31    47    1
    50     2    48    1
    51     6    49    1
    52     9    50    1
    53    14    51    1
    54    14    52    1
    55    18    53    1
    56    18    54    1
    57    19    55    1
    58    19    56    1
    59    22    57    1
    60    22    58    1
    61    23    59    1
    62    23    60    1
    63    26    61    1
    64    26    62    1
    65    27    63    1
    66    27    64    1
    67    28    65    1
    68    28    66    1
    69    29    67    1
    70    29    68    1
    71    30    69    1
    72    30    70    1
@<TRIPOS>SUBSTRUCTURE
     1 RES1        1 GROUP             0 ****  ****    0  
@<TRIPOS>MOLECULE
43.7437
    70    72     1     0     0
SMALL
NO_CHARGES
****
Generated from the CSD

@<TRIPOS>ATOM
     1 C      103.2323 101.9260  80.5574   C.ar      1 RES1   0.0000
     2 N      104.3453 101.2964  80.9997   N.ar      1 RES1   0.0000
     3 C      104.3168 100.0104  81.4081   C.ar      1 RES1   0.0000
     4 C      103.0895  99.3554  81.3557   C.ar      1 RES1   0.0000
     5 C      101.9649 100.0265  80.9017   C.ar      1 RES1   0.0000
     6 N      102.0333 101.3074  80.5012   N.ar      1 RES1   0.0000
     7 N      100.9456  99.1531  80.9706   N.ar      1 RES1   0.0000
     8 C      101.4012  97.9720  81.4361   C.ar      1 RES1   0.0000
     9 N      102.7223  98.1013  81.6776   N.ar      1 RES1   0.0000
    10 C       99.6582  99.4058  80.6042   C.3       1 RES1   0.0000
    11 C       99.2192  98.5765  79.3763   C.3       1 RES1   0.0000
    12 C       97.8079  98.0728  79.7490   C.3       1 RES1   0.0000
    13 C       97.4666  98.8898  81.0110   C.3       1 RES1   0.0000
    14 O       98.7470  99.0111  81.6338   O.3       1 RES1   0.0000
    15 C       96.4726  98.1777  81.9495   C.3       1 RES1   0.0000
    16 O       95.2267  98.8795  81.9123   O.3       1 RES1   0.0000
    17 P       93.9086  98.1760  81.3409   P.3       1 RES1   0.0000
    18 O       94.0977  97.8587  79.8974   O.2       1 RES1   0.0000
    19 O       93.6294  96.8250  82.1510   O.3       1 RES1   0.0000
    20 O       92.6696  99.1744  81.5202   O.3       1 RES1   0.0000
    21 P       92.2430  99.8264  80.1205   P.3       1 RES1   0.0000
    22 O       91.0965 100.7494  80.3521   O.2       1 RES1   0.0000
    23 O       91.7868  98.6751  79.1063   O.3       1 RES1   0.0000
    24 O       93.4749 100.6434  79.5036   O.3       1 RES1   0.0000
    25 P       93.1309 102.1973  79.3288   P.3       1 RES1   0.0000
    26 O       92.7974 102.7988  80.6505   O.2       1 RES1   0.0000
    27 O       91.8693 102.3513  78.3572   O.3       1 RES1   0.0000
    28 O       94.3838 102.9634  78.6938   O.3       1 RES1   0.0000
    29 O       96.8731  98.2982  78.6871   O.3       1 RES1   0.0000
    30 O       99.1740  99.3978  78.2033   O.3       1 RES1   0.0000
    31 N      105.4279  99.3824  81.8492   N.pl3     1 RES1   0.0000
    32 H1     103.3054 102.9592  80.2381   H         1 RES1   0.0000
    33 H2     100.8114  97.0754  81.5900   H         1 RES1   0.0000
    34 H3      99.5056 100.4767  80.3991   H         1 RES1   0.0000
    35 H4      99.8875  97.7163  79.2138   H         1 RES1   0.0000
    36 H5      97.8660  97.0030  80.0038   H         1 RES1   0.0000
    37 H6      97.0929  99.8850  80.7242   H         1 RES1   0.0000
    38 H7      96.3184  97.1356  81.6328   H         1 RES1   0.0000
    39 H8      96.8673  98.1949  82.9765   H         1 RES1   0.0000
    40 H9      92.8560  96.9342  82.6918   H         1 RES1   0.0000
    41 H10     92.0620  98.8943  78.2240   H         1 RES1   0.0000
    42 H11     91.4446 103.1860  78.5171   H         1 RES1   0.0000
    43 H12     95.1561 102.8008  79.2221   H         1 RES1   0.0000
    44 H13     97.3252  98.5695  77.8966   H         1 RES1   0.0000
    45 H14     99.3508  98.8774  77.4277   H         1 RES1   0.0000
    46 H15    106.3252  99.8870  81.8793   H         1 RES1   0.0000
    47 H16    105.3801  98.4000  82.1562   H         1 RES1   0.0000
    48 ****   105.2109 101.7966  81.0246   Du        1 RES1   0.0000
    49 ****   101.2207 101.7880  80.1714   Du        1 RES1   0.0000
    50 ****   103.3251  97.3877  82.0345   Du        1 RES1   0.0000
    51 ****    99.0260  98.1344  82.0257   Du        1 RES1   0.0000
    52 ****    98.7174  99.7039  82.3542   Du        1 RES1   0.0000
    53 ****    93.6095  97.0888  79.4866   Du        1 RES1   0.0000
    54 ****    94.7129  98.4158  79.3395   Du        1 RES1   0.0000
    55 ****    94.4158  96.6163  82.7323   Du        1 RES1   0.0000
    56 ****    93.4825  96.0744  81.5068   Du        1 RES1   0.0000
    57 ****    91.2394 101.6126  80.8364   Du        1 RES1   0.0000
    58 ****    90.1840 100.5057  80.0233   Du        1 RES1   0.0000
    59 ****    90.7910  98.5869  79.1309   Du        1 RES1   0.0000
    60 ****    92.2051  97.8085  79.3786   Du        1 RES1   0.0000
    61 ****    92.9236 103.7795  80.7997   Du        1 RES1   0.0000
    62 ****    92.4475 102.2217  81.3885   Du        1 RES1   0.0000
    63 ****    91.2219 101.6094  78.5320   Du        1 RES1   0.0000
    64 ****    92.1746 102.3099  77.4059   Du        1 RES1   0.0000
    65 ****    94.1969 103.9455  78.6703   Du        1 RES1   0.0000
    66 ****    94.5406 102.6317  77.7635   Du        1 RES1   0.0000
    67 ****    96.2309  99.0142  78.9609   Du        1 RES1   0.0000
    68 ****    96.3716  97.4524  78.5054   Du        1 RES1   0.0000
    69 ****    99.8619 100.1196  78.2798   Du        1 RES1   0.0000
    70 ****    98.2662  99.8095  78.1241   Du        1 RES1   0.0000
@<TRIPOS>BOND
     1     1     2   ar
     2     2     3   ar
     3     3     4   ar
     4     4     5   ar
     5     5     6   ar
     6     1     6   ar
     7     5     7   ar
     8     7     8   ar
     9     8     9   ar
    10     4     9   ar
    11     7    10    1
    12    10    11    1
    13    11    12    1
    14    12    13    1
    15    13    14    1
    16    10    14    1
    17    13    15    1
    18    15    16    1
    19    16    17    1
    20    17    18    2
    21    17    19    1
    22    17    20    1
    23    20    21    1
    24    21    22    2
    25    21    23    1
    26    21    24    1
    27    24    25    1
    28    25    26    2
    29    25    27    1
    30    25    28    1
    31    12    29    1
    32    11    30    1
    33     3    31    1
    34     1    32    1
    35     8    33    1
    36    10    34    1
    37    11    35    1
    38    12    36    1
    39    13    37    1
    40    15    38    1
    41    15    39    1
    42    19    40    1
    43    23    41    1
    44    27    42    1
    45    28    43    1
    46    29    44    1
    47    30    45    1
    48    31    46    1
    49    31    47    1
    50     2    48    1
    51     6    49    1
    52     9    50    1
    53    14    51    1
    54    14    52    1
    55    18    53    1
    56    18    54    1
    57    19    55    1
    58    19    56    1
    59    22    57    1
    60    22    58    1
    61    23    59    1
    62    23    60    1
    63    26    61    1
    64    26    62    1
    65    27    63    1
    66    27    64    1
    67    28    65    1
    68    28    66    1
    69    29    67    1
    70    29    68    1
    71    30    69    1
    72    30    70    1
@<TRIPOS>SUBSTRUCTURE
     1 RES1        1 GROUP             0 ****  ****    0  
@<TRIPOS>MOLECULE
43.1361
    70    72     1     0     0
SMALL
NO_CHARGES
****
Generated from the CSD

@<TRIPOS>ATOM
     1 C       93.9312  94.0849  83.4857   C.ar      1 RES1   0.0000
     2 N       94.1846  92.8179  83.8870   N.ar      1 RES1   0.0000
     3 C       95.4399  92.3234  83.9217   C.ar      1 RES1   0.0000
     4 C       96.4679  93.1743  83.5252   C.ar      1 RES1   0.0000
     5 C       96.1784  94.4663  83.1151   C.ar      1 RES1   0.0000
     6 N       94.9151  94.9238  83.0962   N.ar      1 RES1   0.0000
     7 N       97.3521  95.0360  82.7922   N.ar      1 RES1   0.0000
     8 C       98.3490  94.1514  82.9990   C.ar      1 RES1   0.0000
     9 N       97.8004  93.0027  83.4460   N.ar      1 RES1   0.0000
    10 C       97.5189  96.3139  82.3508   C.3       1 RES1   0.0000
    11 C       98.3475  96.3863  81.0484   C.3       1 RES1   0.0000
    12 C       97.5797  97.3990  80.1712   C.3       1 RES1   0.0000
    13 C       96.5643  98.0146  81.1544   C.3       1 RES1   0.0000
    14 O       96.2632  96.9003  81.9968   O.3       1 RES1   0.0000
    15 C       95.2869  98.5355  80.4671   C.3       1 RES1   0.0000
    16 O       94.3579  98.9404  81.4765   O.3       1 RES1   0.0000
    17 P       92.9171  99.5114  81.0804   P.3       1 RES1   0.0000
    18 O       92.7551  99.4741  79.5997   O.2       1 RES1   0.0000
    19 O       91.7807  98.6160  81.7632   O.3       1 RES1   0.0000
    20 O       92.7966 101.0204  81.6024   O.3       1 RES1   0.0000
    21 P       91.3402 101.6205  81.3107   P.3       1 RES1   0.0000
    22 O       90.3180 100.6746  81.8404   O.2       1 RES1   0.0000
    23 O       91.1302 101.7824  79.7322   O.3       1 RES1   0.0000
    24 O       91.1833 103.0415  82.0329   O.3       1 RES1   0.0000
    25 P       89.7031 103.6306  81.8726   P.3       1 RES1   0.0000
    26 O       89.3752 103.8031  80.4295   O.2       1 RES1   0.0000
    27 O       89.6223 105.0555  82.5955   O.3       1 RES1   0.0000
    28 O       88.6463 102.6357  82.5457   O.3       1 RES1   0.0000
    29 O       98.4593  98.3821  79.6128   O.3       1 RES1   0.0000
    30 O       99.6749  96.8513  81.3205   O.3       1 RES1   0.0000
    31 N       95.6923  91.0588  84.3226   N.pl3     1 RES1   0.0000
    32 H1      92.9064  94.4377  83.4765   H         1 RES1   0.0000
    33 H2      99.4058  94.3298  82.8355   H         1 RES1   0.0000
    34 H3      97.9894  96.9432  83.1221   H         1 RES1   0.0000
    35 H4      98.3823  95.4096  80.5406   H         1 RES1   0.0000
    36 H5      97.0446  96.8521  79.3791   H         1 RES1   0.0000
    37 H6      97.0468  98.8103  81.7429   H         1 RES1   0.0000
    38 H7      95.5183  99.3903  79.8146   H         1 RES1   0.0000
    39 H8      94.8414  97.7267  79.8685   H         1 RES1   0.0000
    40 H9      91.4677  99.0474  82.5496   H         1 RES1   0.0000
    41 H10     90.2846 101.4302  79.4810   H         1 RES1   0.0000
    42 H11     89.3489 104.9393  83.4979   H         1 RES1   0.0000
    43 H12     88.9990 102.3035  83.3626   H         1 RES1   0.0000
    44 H13     98.5524  99.1205  80.2036   H         1 RES1   0.0000
    45 H14    100.3168  96.2473  80.9646   H         1 RES1   0.0000
    46 H15     94.9157  90.4471  84.6115   H         1 RES1   0.0000
    47 H16     96.6596  90.7044  84.3397   H         1 RES1   0.0000
    48 ****    93.4226  92.2330  84.1650   Du        1 RES1   0.0000
    49 ****    94.7098  95.8574  82.8025   Du        1 RES1   0.0000
    50 ****    98.2983  92.1673  83.6785   Du        1 RES1   0.0000
    51 ****    95.6978  96.2376  81.5056   Du        1 RES1   0.0000
    52 ****    95.7806  97.2068  82.8173   Du        1 RES1   0.0000
    53 ****    92.9119 100.3003  79.0586   Du        1 RES1   0.0000
    54 ****    92.4896  98.6228  79.1470   Du        1 RES1   0.0000
    55 ****    92.1593  97.7218  82.0017   Du        1 RES1   0.0000
    56 ****    91.0212  98.4966  81.1237   Du        1 RES1   0.0000
    57 ****    89.9741 100.7811  82.7733   Du        1 RES1   0.0000
    58 ****    89.9759  99.9333  81.2630   Du        1 RES1   0.0000
    59 ****    91.8524 101.2874  79.2491   Du        1 RES1   0.0000
    60 ****    91.1710 102.7518  79.4899   Du        1 RES1   0.0000
    61 ****    90.0377 103.5335  79.7305   Du        1 RES1   0.0000
    62 ****    88.4927 104.1884  80.1598   Du        1 RES1   0.0000
    63 ****    88.9601 105.6336  82.1187   Du        1 RES1   0.0000
    64 ****    90.5220 105.4914  82.5736   Du        1 RES1   0.0000
    65 ****    88.4660 101.8720  81.9257   Du        1 RES1   0.0000
    66 ****    87.7942 103.1270  82.7260   Du        1 RES1   0.0000
    67 ****    98.0847  98.7023  78.7427   Du        1 RES1   0.0000
    68 ****    99.3571  97.9699  79.4577   Du        1 RES1   0.0000
    69 ****    99.8027  96.9228  82.3097   Du        1 RES1   0.0000
    70 ****    99.8013  97.7508  80.9022   Du        1 RES1   0.0000
@<TRIPOS>BOND
     1     1     2   ar
     2     2     3   ar
     3     3     4   ar
     4     4     5   ar
     5     5     6   ar
     6     1     6   ar
     7     5     7   ar
     8     7     8   ar
     9     8     9   ar
    10     4     9   ar
    11     7    10    1
    12    10    11    1
    13    11    12    1
    14    12    13    1
    15    13    14    1
    16    10    14    1
    17    13    15    1
    18    15    16    1
    19    16    17    1
    20    17    18    2
    21    17    19    1
    22    17    20    1
    23    20    21    1
    24    21    22    2
    25    21    23    1
    26    21    24    1
    27    24    25    1
    28    25    26    2
    29    25    27    1
    30    25    28    1
    31    12    29    1
    32    11    30    1
    33     3    31    1
    34     1    32    1
    35     8    33    1
    36    10    34    1
    37    11    35    1
    38    12    36    1
    39    13    37    1
    40    15    38    1
    41    15    39    1
    42    19    40    1
    43    23    41    1
    44    27    42    1
    45    28    43    1
    46    29    44    1
    47    30    45    1
    48    31    46    1
    49    31    47    1
    50     2    48    1
    51     6    49    1
    52     9    50    1
    53    14    51    1
    54    14    52    1
    55    18    53    1
    56    18    54    1
    57    19    55    1
    58    19    56    1
    59    22    57    1
    60    22    58    1
    61    23    59    1
    62    23    60    1
    63    26    61    1
    64    26    62    1
    65    27    63    1
    66    27    64    1
    67    28    65    1
    68    28    66    1
    69    29    67    1
    70    29    68    1
    71    30    69    1
    72    30    70    1
@<TRIPOS>SUBSTRUCTURE
     1 RES1        1 GROUP             0 ****  ****    0  
@<TRIPOS>MOLECULE
42.4614
    70    72     1     0     0
SMALL
NO_CHARGES
****
Generated from the CSD

@<TRIPOS>ATOM
     1 C       92.0735  95.1291  80.9329   C.ar      1 RES1   0.0000
     2 N       90.9739  94.3410  80.9093   N.ar      1 RES1   0.0000
     3 C       90.8440  93.2812  81.7347   C.ar      1 RES1   0.0000
     4 C       91.8929  93.0307  82.6151   C.ar      1 RES1   0.0000
     5 C       93.0090  93.8525  82.6145   C.ar      1 RES1   0.0000
     6 N       93.1012  94.9005  81.7786   N.ar      1 RES1   0.0000
     7 N       93.8414  93.3661  83.5511   N.ar      1 RES1   0.0000
     8 C       93.2765  92.2886  84.1334   C.ar      1 RES1   0.0000
     9 N       92.0775  92.0810  83.5506   N.ar      1 RES1   0.0000
    10 C       95.0540  93.8898  83.8840   C.3       1 RES1   0.0000
    11 C       96.2051  92.8735  83.7098   C.3       1 RES1   0.0000
    12 C       97.3231  93.6871  83.0226   C.3       1 RES1   0.0000
    13 C       96.8171  95.1393  83.1322   C.3       1 RES1   0.0000
    14 O       95.4042  94.9649  83.0079   O.3       1 RES1   0.0000
    15 C       97.3503  96.0580  82.0153   C.3       1 RES1   0.0000
    16 O       97.4577  97.3880  82.5305   O.3       1 RES1   0.0000
    17 P       97.9075  98.5974  81.5850   P.3       1 RES1   0.0000
    18 O       99.1112  99.2604  82.1609   O.2       1 RES1   0.0000
    19 O       98.2545  98.0364  80.1276   O.3       1 RES1   0.0000
    20 O       96.7045  99.6493  81.4821   O.3       1 RES1   0.0000
    21 P       95.4392  99.0120  80.7346   P.3       1 RES1   0.0000
    22 O       95.7726  97.6159  80.3348   O.2       1 RES1   0.0000
    23 O       95.1042  99.8630  79.4209   O.3       1 RES1   0.0000
    24 O       94.1750  99.0023  81.7181   O.3       1 RES1   0.0000
    25 P       92.8537  99.5452  80.9948   P.3       1 RES1   0.0000
    26 O       92.7028  98.9043  79.6583   O.2       1 RES1   0.0000
    27 O       92.9735 101.1285  80.7989   O.3       1 RES1   0.0000
    28 O       91.5698  99.2192  81.8921   O.3       1 RES1   0.0000
    29 O       98.5844  93.5011  83.6756   O.3       1 RES1   0.0000
    30 O       96.6411  92.3825  84.9831   O.3       1 RES1   0.0000
    31 N       89.7462  92.4952  81.7109   N.pl3     1 RES1   0.0000
    32 H1      92.1314  95.9702  80.2517   H         1 RES1   0.0000
    33 H2      93.7082  91.6926  84.9295   H         1 RES1   0.0000
    34 H3      95.0528  94.2715  84.9167   H         1 RES1   0.0000
    35 H4      95.9054  92.0358  83.0606   H         1 RES1   0.0000
    36 H5      97.3795  93.3928  81.9629   H         1 RES1   0.0000
    37 H6      97.0589  95.5470  84.1259   H         1 RES1   0.0000
    38 H7      98.3368  95.7158  81.6693   H         1 RES1   0.0000
    39 H8      96.6432  96.0522  81.1723   H         1 RES1   0.0000
    40 H9      98.8923  97.3362  80.2014   H         1 RES1   0.0000
    41 H10     95.5100 100.7199  79.4790   H         1 RES1   0.0000
    42 H11     92.5117 101.3872  80.0100   H         1 RES1   0.0000
    43 H12     91.7653  98.4948  82.4743   H         1 RES1   0.0000
    44 H13     98.5141  93.7041  84.6012   H         1 RES1   0.0000
    45 H14     97.1181  91.5671  84.8779   H         1 RES1   0.0000
    46 H15     88.9824  92.6996  81.0509   H         1 RES1   0.0000
    47 H16     89.6709  91.6913  82.3510   H         1 RES1   0.0000
    48 ****    90.2389  94.5492  80.2639   Du        1 RES1   0.0000
    49 ****    93.9065  95.4933  81.7826   Du        1 RES1   0.0000
    50 ****    91.4361  91.3474  83.7753   Du        1 RES1   0.0000
    51 ****    95.1654  94.7346  82.0645   Du        1 RES1   0.0000
    52 ****    94.9270  95.8011  83.2779   Du        1 RES1   0.0000
    53 ****   100.0211  98.8850  81.9846   Du        1 RES1   0.0000
    54 ****    99.0091 100.0806  82.7237   Du        1 RES1   0.0000
    55 ****    98.6324  98.7738  79.5678   Du        1 RES1   0.0000
    56 ****    97.4222  97.6853  79.6986   Du        1 RES1   0.0000
    57 ****    95.1815  96.8603  80.6169   Du        1 RES1   0.0000
    58 ****    96.5876  97.4345  79.7845   Du        1 RES1   0.0000
    59 ****    94.1134  99.9700  79.3388   Du        1 RES1   0.0000
    60 ****    95.4555  99.3835  78.6167   Du        1 RES1   0.0000
    61 ****    92.0330  99.2596  79.0062   Du        1 RES1   0.0000
    62 ****    93.2712  98.1190  79.4133   Du        1 RES1   0.0000
    63 ****    93.9375 101.3821  80.7187   Du        1 RES1   0.0000
    64 ****    92.5711 101.5930  81.5878   Du        1 RES1   0.0000
    65 ****    90.8031  98.9727  81.2993   Du        1 RES1   0.0000
    66 ****    91.3277 100.0250  82.4325   Du        1 RES1   0.0000
    67 ****    99.2635  94.1043  83.2573   Du        1 RES1   0.0000
    68 ****    98.8729  92.5496  83.5687   Du        1 RES1   0.0000
    69 ****    95.8440  92.2252  85.5661   Du        1 RES1   0.0000
    70 ****    97.2383  93.0609  85.4110   Du        1 RES1   0.0000
@<TRIPOS>BOND
     1     1     2   ar
     2     2     3   ar
     3     3     4   ar
     4     4     5   ar
     5     5     6   ar
     6     1     6   ar
     7     5     7   ar
     8     7     8   ar
     9     8     9   ar
    10     4     9   ar
    11     7    10    1
    12    10    11    1
    13    11    12    1
    14    12    13    1
    15    13    14    1
    16    10    14    1
    17    13    15    1
    18    15    16    1
    19    16    17    1
    20    17    18    2
    21    17    19    1
    22    17    20    1
    23    20    21    1
    24    21    22    2
    25    21    23    1
    26    21    24    1
    27    24    25    1
    28    25    26    2
    29    25    27    1
    30    25    28    1
    31    12    29    1
    32    11    30    1
    33     3    31    1
    34     1    32    1
    35     8    33    1
    36    10    34    1
    37    11    35    1
    38    12    36    1
    39    13    37    1
    40    15    38    1
    41    15    39    1
    42    19    40    1
    43    23    41    1
    44    27    42    1
    45    28    43    1
    46    29    44    1
    47    30    45    1
    48    31    46    1
    49    31    47    1
    50     2    48    1
    51     6    49    1
    52     9    50    1
    53    14    51    1
    54    14    52    1
    55    18    53    1
    56    18    54    1
    57    19    55    1
    58    19    56    1
    59    22    57    1
    60    22    58    1
    61    23    59    1
    62    23    60    1
    63    26    61    1
    64    26    62    1
    65    27    63    1
    66    27    64    1
    67    28    65    1
    68    28    66    1
    69    29    67    1
    70    29    68    1
    71    30    69    1
    72    30    70    1
@<TRIPOS>SUBSTRUCTURE
     1 RES1        1 GROUP             0 ****  ****    0  
@<TRIPOS>MOLECULE
41.2727
    70    72     1     0     0
SMALL
NO_CHARGES
****
Generated from the CSD

@<TRIPOS>ATOM
     1 C      103.2645 101.6775  80.1046   C.ar      1 RES1   0.0000
     2 N      104.4278 101.5966  80.7907   N.ar      1 RES1   0.0000
     3 C      104.8131 100.4555  81.3998   C.ar      1 RES1   0.0000
     4 C      103.9603  99.3604  81.2929   C.ar      1 RES1   0.0000
     5 C      102.7729  99.4734  80.5869   C.ar      1 RES1   0.0000
     6 N      102.4241 100.6265  79.9917   N.ar      1 RES1   0.0000
     7 N      102.1684  98.2753  80.6628   N.ar      1 RES1   0.0000
     8 C      102.9415  97.4302  81.3750   C.ar      1 RES1   0.0000
     9 N      104.0431  98.1034  81.7667   N.ar      1 RES1   0.0000
    10 C      100.9758  97.9506  80.0901   C.3       1 RES1   0.0000
    11 C       99.9722  97.3618  81.1071   C.3       1 RES1   0.0000
    12 C       98.6400  98.0661  80.7701   C.3       1 RES1   0.0000
    13 C       98.9415  98.7616  79.4277   C.3       1 RES1   0.0000
    14 O      100.3168  99.1159  79.5864   O.3       1 RES1   0.0000
    15 C       98.0826 100.0180  79.1841   C.3       1 RES1   0.0000
    16 O       96.9122  99.6368  78.4556   O.3       1 RES1   0.0000
    17 P       96.6027 100.2659  77.0178   P.3       1 RES1   0.0000
    18 O       97.5862 101.3457  76.7231   O.2       1 RES1   0.0000
    19 O       96.7123  99.1263  75.9004   O.3       1 RES1   0.0000
    20 O       95.1193 100.8690  77.0248   O.3       1 RES1   0.0000
    21 P       94.0256  99.7162  77.2272   P.3       1 RES1   0.0000
    22 O       94.3486  98.9631  78.4716   O.2       1 RES1   0.0000
    23 O       94.0679  98.7087  75.9841   O.3       1 RES1   0.0000
    24 O       92.5675 100.3669  77.3556   O.3       1 RES1   0.0000
    25 P       91.4420  99.2587  77.6176   P.3       1 RES1   0.0000
    26 O       90.1039  99.9050  77.7257   O.2       1 RES1   0.0000
    27 O       91.7613  98.4976  78.9880   O.3       1 RES1   0.0000
    28 O       91.4297  98.2019  76.4164   O.3       1 RES1   0.0000
    29 O       97.5625  97.1279  80.6654   O.3       1 RES1   0.0000
    30 O       99.8563  95.9440  80.9379   O.3       1 RES1   0.0000
    31 N      105.9744 100.3751  82.0842   N.pl3     1 RES1   0.0000
    32 H1     102.9987 102.6154  79.6306   H         1 RES1   0.0000
    33 H2     102.7188  96.3923  81.5954   H         1 RES1   0.0000
    34 H3     101.1136  97.2439  79.2572   H         1 RES1   0.0000
    35 H4     100.2643  97.5996  82.1421   H         1 RES1   0.0000
    36 H5      98.4309  98.8234  81.5418   H         1 RES1   0.0000
    37 H6      98.8321  98.0437  78.6001   H         1 RES1   0.0000
    38 H7      97.7889 100.4785  80.1389   H         1 RES1   0.0000
    39 H8      98.6594 100.7421  78.5893   H         1 RES1   0.0000
    40 H9      97.5793  98.7390  75.9272   H         1 RES1   0.0000
    41 H10     93.4614  98.9983  75.3128   H         1 RES1   0.0000
    42 H11     92.2061  97.6792  78.8012   H         1 RES1   0.0000
    43 H12     90.6164  98.2813  75.9322   H         1 RES1   0.0000
    44 H13     96.8548  97.3656  81.2532   H         1 RES1   0.0000
    45 H14    100.3561  95.6588  80.1813   H         1 RES1   0.0000
    46 H15    106.5897 101.1984  82.1500   H         1 RES1   0.0000
    47 H16    106.2461  99.4925  82.5411   H         1 RES1   0.0000
    48 ****   105.0170 102.4025  80.8480   Du        1 RES1   0.0000
    49 ****   101.5681 100.7041  79.4806   Du        1 RES1   0.0000
    50 ****   104.7925  97.7322  82.3150   Du        1 RES1   0.0000
    51 ****   100.4070  99.8721  80.2345   Du        1 RES1   0.0000
    52 ****   100.7095  99.3826  78.7063   Du        1 RES1   0.0000
    53 ****    98.4865 101.3344  77.1584   Du        1 RES1   0.0000
    54 ****    97.3461 102.0816  76.0901   Du        1 RES1   0.0000
    55 ****    96.5542  99.5276  74.9983   Du        1 RES1   0.0000
    56 ****    96.0263  98.4202  76.0760   Du        1 RES1   0.0000
    57 ****    95.0975  98.3004  78.4749   Du        1 RES1   0.0000
    58 ****    93.8166  99.1204  79.3036   Du        1 RES1   0.0000
    59 ****    93.8103  97.7925  76.2909   Du        1 RES1   0.0000
    60 ****    94.9938  98.6860  75.6070   Du        1 RES1   0.0000
    61 ****    89.7726 100.4949  76.9893   Du        1 RES1   0.0000
    62 ****    89.5370  99.7488  78.5345   Du        1 RES1   0.0000
    63 ****    90.9063  98.3092  79.4712   Du        1 RES1   0.0000
    64 ****    92.3473  99.0723  79.5593   Du        1 RES1   0.0000
    65 ****    91.5082  97.2761  76.7863   Du        1 RES1   0.0000
    66 ****    92.2003  98.3830  75.8053   Du        1 RES1   0.0000
    67 ****    97.8962  96.2159  80.9043   Du        1 RES1   0.0000
    68 ****    97.2215  97.1224  79.7254   Du        1 RES1   0.0000
    69 ****    98.8942  95.7054  80.8063   Du        1 RES1   0.0000
    70 ****   100.2048  95.4850  81.7552   Du        1 RES1   0.0000
@<TRIPOS>BOND
     1     1     2   ar
     2     2     3   ar
     3     3     4   ar
     4     4     5   ar
     5     5     6   ar
     6     1     6   ar
     7     5     7   ar
     8     7     8   ar
     9     8     9   ar
    10     4     9   ar
    11     7    10    1
    12    10    11    1
    13    11    12    1
    14    12    13    1
    15    13    14    1
    16    10    14    1
    17    13    15    1
    18    15    16    1
    19    16    17    1
    20    17    18    2
    21    17    19    1
    22    17    20    1
    23    20    21    1
    24    21    22    2
    25    21    23    1
    26    21    24    1
    27    24    25    1
    28    25    26    2
    29    25    27    1
    30    25    28    1
    31    12    29    1
    32    11    30    1
    33     3    31    1
    34     1    32    1
    35     8    33    1
    36    10    34    1
    37    11    35    1
    38    12    36    1
    39    13    37    1
    40    15    38    1
    41    15    39    1
    42    19    40    1
    43    23    41    1
    44    27    42    1
    45    28    43    1
    46    29    44    1
    47    30    45    1
    48    31    46    1
    49    31    47    1
    50     2    48    1
    51     6    49    1
    52     9    50    1
    53    14    51    1
    54    14    52    1
    55    18    53    1
    56    18    54    1
    57    19    55    1
    58    19    56    1
    59    22    57    1
    60    22    58    1
    61    23    59    1
    62    23    60    1
    63    26    61    1
    64    26    62    1
    65    27    63    1
    66    27    64    1
    67    28    65    1
    68    28    66    1
    69    29    67    1
    70    29    68    1
    71    30    69    1
    72    30    70    1
@<TRIPOS>SUBSTRUCTURE
     1 RES1        1 GROUP             0 ****  ****    0  
@<TRIPOS>MOLECULE
40.763
    70    72     1     0     0
SMALL
NO_CHARGES
****
Generated from the CSD

@<TRIPOS>ATOM
     1 C       96.3097  94.8010  83.7017   C.ar      1 RES1   0.0000
     2 N       97.3366  94.0081  84.0860   N.ar      1 RES1   0.0000
     3 C       98.5603  94.1130  83.5264   C.ar      1 RES1   0.0000
     4 C       98.7231  95.0744  82.5329   C.ar      1 RES1   0.0000
     5 C       97.6523  95.8700  82.1567   C.ar      1 RES1   0.0000
     6 N       96.4485  95.7375  82.7389   N.ar      1 RES1   0.0000
     7 N       98.1044  96.6852  81.1884   N.ar      1 RES1   0.0000
     8 C       99.4098  96.4306  80.9646   C.ar      1 RES1   0.0000
     9 N       99.7872  95.4334  81.7913   N.ar      1 RES1   0.0000
    10 C       97.3723  97.6392  80.5484   C.3       1 RES1   0.0000
    11 C       97.4328  97.4986  79.0107   C.3       1 RES1   0.0000
    12 C       95.9704  97.7005  78.5577   C.3       1 RES1   0.0000
    13 C       95.2767  98.2166  79.8341   C.3       1 RES1   0.0000
    14 O       95.9814  97.5071  80.8549   O.3       1 RES1   0.0000
    15 C       93.7715  97.8890  79.8864   C.3       1 RES1   0.0000
    16 O       93.6156  96.5165  80.2579   O.3       1 RES1   0.0000
    17 P       92.3282  95.6860  79.7978   P.3       1 RES1   0.0000
    18 O       91.6425  95.1238  80.9952   O.2       1 RES1   0.0000
    19 O       91.3224  96.6503  79.0118   O.3       1 RES1   0.0000
    20 O       92.7965  94.4978  78.8318   O.3       1 RES1   0.0000
    21 P       91.5862  93.4976  78.5140   P.3       1 RES1   0.0000
    22 O       90.4408  94.2868  77.9798   O.2       1 RES1   0.0000
    23 O       91.1278  92.7615  79.8594   O.3       1 RES1   0.0000
    24 O       92.0469  92.4151  77.4269   O.3       1 RES1   0.0000
    25 P       92.2020  90.9562  78.0681   P.3       1 RES1   0.0000
    26 O       92.5936  89.9751  77.0174   O.2       1 RES1   0.0000
    27 O       90.8024  90.5071  78.6995   O.3       1 RES1   0.0000
    28 O       93.3158  90.9827  79.2164   O.3       1 RES1   0.0000
    29 O       95.8808  98.6349  77.4756   O.3       1 RES1   0.0000
    30 O       98.2846  98.5023  78.4458   O.3       1 RES1   0.0000
    31 N       99.5849  93.3217  83.9105   N.pl3     1 RES1   0.0000
    32 H1      95.3454  94.6806  84.1818   H         1 RES1   0.0000
    33 H2     100.0458  96.9367  80.2471   H         1 RES1   0.0000
    34 H3      97.6959  98.6507  80.8388   H         1 RES1   0.0000
    35 H4      97.7765  96.4954  78.7131   H         1 RES1   0.0000
    36 H5      95.5464  96.7248  78.2735   H         1 RES1   0.0000
    37 H6      95.4478  99.2988  79.9428   H         1 RES1   0.0000
    38 H7      93.2602  98.5299  80.6198   H         1 RES1   0.0000
    39 H8      93.3310  98.0468  78.8905   H         1 RES1   0.0000
    40 H9      90.4283  96.3688  79.1662   H         1 RES1   0.0000
    41 H10     91.5175  93.1911  80.6116   H         1 RES1   0.0000
    42 H11     90.1715  91.2114  78.6081   H         1 RES1   0.0000
    43 H12     93.1795  91.7400  79.7732   H         1 RES1   0.0000
    44 H13     95.8965  98.1812  76.6408   H         1 RES1   0.0000
    45 H14     98.3362  99.2559  79.0228   H         1 RES1   0.0000
    46 H15     99.4412  92.6170  84.6477   H         1 RES1   0.0000
    47 H16    100.5099  93.4207  83.4675   H         1 RES1   0.0000
    48 ****    97.1851  93.3274  84.8026   Du        1 RES1   0.0000
    49 ****    95.6786  96.3150  82.4673   Du        1 RES1   0.0000
    50 ****   100.7009  95.0302  81.8439   Du        1 RES1   0.0000
    51 ****    95.7163  96.5428  80.8525   Du        1 RES1   0.0000
    52 ****    95.7851  97.9044  81.7514   Du        1 RES1   0.0000
    53 ****    90.6557  94.9634  80.9770   Du        1 RES1   0.0000
    54 ****    92.1692  94.9070  81.8172   Du        1 RES1   0.0000
    55 ****    91.5199  96.6110  78.0323   Du        1 RES1   0.0000
    56 ****    91.4373  97.5887  79.3376   Du        1 RES1   0.0000
    57 ****    90.3351  94.4094  76.9930   Du        1 RES1   0.0000
    58 ****    89.7778  94.6938  78.6081   Du        1 RES1   0.0000
    59 ****    91.4241  91.8067  79.8325   Du        1 RES1   0.0000
    60 ****    90.1314  92.7993  79.9352   Du        1 RES1   0.0000
    61 ****    93.3060  89.2990  77.2052   Du        1 RES1   0.0000
    62 ****    92.1440  89.9929  76.1243   Du        1 RES1   0.0000
    63 ****    90.9270  90.2955  79.6689   Du        1 RES1   0.0000
    64 ****    90.4667  89.6953  78.2217   Du        1 RES1   0.0000
    65 ****    94.2232  91.0347  78.7993   Du        1 RES1   0.0000
    66 ****    93.2485  90.1494  79.7651   Du        1 RES1   0.0000
    67 ****    96.6549  99.2663  77.5213   Du        1 RES1   0.0000
    68 ****    95.0265  99.1486  77.5546   Du        1 RES1   0.0000
    69 ****    97.9151  98.7888  77.5618   Du        1 RES1   0.0000
    70 ****    99.2007  98.1226  78.3168   Du        1 RES1   0.0000
@<TRIPOS>BOND
     1     1     2   ar
     2     2     3   ar
     3     3     4   ar
     4     4     5   ar
     5     5     6   ar
     6     1     6   ar
     7     5     7   ar
     8     7     8   ar
     9     8     9   ar
    10     4     9   ar
    11     7    10    1
    12    10    11    1
    13    11    12    1
    14    12    13    1
    15    13    14    1
    16    10    14    1
    17    13    15    1
    18    15    16    1
    19    16    17    1
    20    17    18    2
    21    17    19    1
    22    17    20    1
    23    20    21    1
    24    21    22    2
    25    21    23    1
    26    21    24    1
    27    24    25    1
    28    25    26    2
    29    25    27    1
    30    25    28    1
    31    12    29    1
    32    11    30    1
    33     3    31    1
    34     1    32    1
    35     8    33    1
    36    10    34    1
    37    11    35    1
    38    12    36    1
    39    13    37    1
    40    15    38    1
    41    15    39    1
    42    19    40    1
    43    23    41    1
    44    27    42    1
    45    28    43    1
    46    29    44    1
    47    30    45    1
    48    31    46    1
    49    31    47    1
    50     2    48    1
    51     6    49    1
    52     9    50    1
    53    14    51    1
    54    14    52    1
    55    18    53    1
    56    18    54    1
    57    19    55    1
    58    19    56    1
    59    22    57    1
    60    22    58    1
    61    23    59    1
    62    23    60    1
    63    26    61    1
    64    26    62    1
    65    27    63    1
    66    27    64    1
    67    28    65    1
    68    28    66    1
    69    29    67    1
    70    29    68    1
    71    30    69    1
    72    30    70    1
@<TRIPOS>SUBSTRUCTURE
     1 RES1        1 GROUP             0 ****  ****    0  
@<TRIPOS>MOLECULE
40.5951
    70    72     1     0     0
SMALL
NO_CHARGES
****
Generated from the CSD

@<TRIPOS>ATOM
     1 C       95.1716  95.0605  83.2784   C.ar      1 RES1   0.0000
     2 N       94.9685  93.7326  83.4398   N.ar      1 RES1   0.0000
     3 C       95.9967  92.8599  83.4925   C.ar      1 RES1   0.0000
     4 C       97.2806  93.3845  83.3730   C.ar      1 RES1   0.0000
     5 C       97.4586  94.7488  83.2047   C.ar      1 RES1   0.0000
     6 N       96.4094  95.5871  83.1592   N.ar      1 RES1   0.0000
     7 N       98.7841  94.9523  83.1143   N.ar      1 RES1   0.0000
     8 C       99.4255  93.7718  83.2325   C.ar      1 RES1   0.0000
     9 N       98.4958  92.8063  83.3866   N.ar      1 RES1   0.0000
    10 C       99.3922  96.1609  82.9556   C.3       1 RES1   0.0000
    11 C      100.6492  96.0775  82.0606   C.3       1 RES1   0.0000
    12 C      100.5269  97.3015  81.1272   C.3       1 RES1   0.0000
    13 C       99.3809  98.1134  81.7629   C.3       1 RES1   0.0000
    14 O       98.5360  97.0773  82.2678   O.3       1 RES1   0.0000
    15 C       98.6180  98.9898  80.7502   C.3       1 RES1   0.0000
    16 O       98.3788  98.2195  79.5689   O.3       1 RES1   0.0000
    17 P       97.0675  98.4626  78.6857   P.3       1 RES1   0.0000
    18 O       96.9387  99.9135  78.3720   O.2       1 RES1   0.0000
    19 O       97.1784  97.6310  77.3235   O.3       1 RES1   0.0000
    20 O       95.7877  97.9695  79.5122   O.3       1 RES1   0.0000
    21 P       94.4505  98.0923  78.6385   P.3       1 RES1   0.0000
    22 O       94.7999  98.6606  77.3062   O.2       1 RES1   0.0000
    23 O       93.4183  99.0744  79.3681   O.3       1 RES1   0.0000
    24 O       93.7900  96.6454  78.4496   O.3       1 RES1   0.0000
    25 P       93.7018  96.2282  76.9063   P.3       1 RES1   0.0000
    26 O       93.0977  94.8723  76.7772   O.2       1 RES1   0.0000
    27 O       95.1751  96.1997  76.2835   O.3       1 RES1   0.0000
    28 O       92.8101  97.2889  76.1065   O.3       1 RES1   0.0000
    29 O      101.7514  98.0430  81.0714   O.3       1 RES1   0.0000
    30 O      101.8393  96.1582  82.8539   O.3       1 RES1   0.0000
    31 N       95.7934  91.5347  83.6538   N.pl3     1 RES1   0.0000
    32 H1      94.3140  95.7224  83.2438   H         1 RES1   0.0000
    33 H2     100.4991  93.6225  83.2081   H         1 RES1   0.0000
    34 H3      99.6610  96.6019  83.9280   H         1 RES1   0.0000
    35 H4     100.6532  95.1541  81.4602   H         1 RES1   0.0000
    36 H5     100.2269  96.9581  80.1248   H         1 RES1   0.0000
    37 H6      99.7682  98.7209  82.5956   H         1 RES1   0.0000
    38 H7      97.6591  99.3252  81.1721   H         1 RES1   0.0000
    39 H8      99.2325  99.8656  80.4930   H         1 RES1   0.0000
    40 H9      98.0849  97.6062  77.0406   H         1 RES1   0.0000
    41 H10     92.8410  98.5744  79.9328   H         1 RES1   0.0000
    42 H11     95.1392  95.8595  75.3972   H         1 RES1   0.0000
    43 H12     93.3254  98.0668  75.9290   H         1 RES1   0.0000
    44 H13    102.4970  97.4545  81.0486   H         1 RES1   0.0000
    45 H14    102.3988  95.4077  82.6890   H         1 RES1   0.0000
    46 H15     94.8345  91.1690  83.7400   H         1 RES1   0.0000
    47 H16     96.5951  90.8885  83.6904   H         1 RES1   0.0000
    48 ****    94.0330  93.3890  83.5220   Du        1 RES1   0.0000
    49 ****    96.5412  96.5712  83.0405   Du        1 RES1   0.0000
    50 ****    98.6783  91.8288  83.4927   Du        1 RES1   0.0000
    51 ****    98.0674  96.6150  81.5150   Du        1 RES1   0.0000
    52 ****    97.8593  97.4584  82.8978   Du        1 RES1   0.0000
    53 ****    96.5552 100.2034  77.4952   Du        1 RES1   0.0000
    54 ****    97.2357 100.5974  79.0384   Du        1 RES1   0.0000
    55 ****    96.6211  98.0700  76.6186   Du        1 RES1   0.0000
    56 ****    96.8507  96.6984  77.4746   Du        1 RES1   0.0000
    57 ****    94.9249  99.6471  77.2005   Du        1 RES1   0.0000
    58 ****    94.9094  98.0554  76.5176   Du        1 RES1   0.0000
    59 ****    92.8747  99.5548  78.6798   Du        1 RES1   0.0000
    60 ****    93.9247  99.7396  79.9168   Du        1 RES1   0.0000
    61 ****    93.5104  94.1972  76.1656   Du        1 RES1   0.0000
    62 ****    92.2797  94.6373  77.3022   Du        1 RES1   0.0000
    63 ****    95.7613  95.6127  76.8419   Du        1 RES1   0.0000
    64 ****    95.5486  97.1272  76.2694   Du        1 RES1   0.0000
    65 ****    92.0126  97.5360  76.6568   Du        1 RES1   0.0000
    66 ****    92.5073  96.8857  75.2429   Du        1 RES1   0.0000
    67 ****   101.8188  98.6279  81.8796   Du        1 RES1   0.0000
    68 ****   101.7550  98.6104  80.2480   Du        1 RES1   0.0000
    69 ****   101.5894  96.1766  83.8220   Du        1 RES1   0.0000
    70 ****   102.3341  96.9956  82.6215   Du        1 RES1   0.0000
@<TRIPOS>BOND
     1     1     2   ar
     2     2     3   ar
     3     3     4   ar
     4     4     5   ar
     5     5     6   ar
     6     1     6   ar
     7     5     7   ar
     8     7     8   ar
     9     8     9   ar
    10     4     9   ar
    11     7    10    1
    12    10    11    1
    13    11    12    1
    14    12    13    1
    15    13    14    1
    16    10    14    1
    17    13    15    1
    18    15    16    1
    19    16    17    1
    20    17    18    2
    21    17    19    1
    22    17    20    1
    23    20    21    1
    24    21    22    2
    25    21    23    1
    26    21    24    1
    27    24    25    1
    28    25    26    2
    29    25    27    1
    30    25    28    1
    31    12    29    1
    32    11    30    1
    33     3    31    1
    34     1    32    1
    35     8    33    1
    36    10    34    1
    37    11    35    1
    38    12    36    1
    39    13    37    1
    40    15    38    1
    41    15    39    1
    42    19    40    1
    43    23    41    1
    44    27    42    1
    45    28    43    1
    46    29    44    1
    47    30    45    1
    48    31    46    1
    49    31    47    1
    50     2    48    1
    51     6    49    1
    52     9    50    1
    53    14    51    1
    54    14    52    1
    55    18    53    1
    56    18    54    1
    57    19    55    1
    58    19    56    1
    59    22    57    1
    60    22    58    1
    61    23    59    1
    62    23    60    1
    63    26    61    1
    64    26    62    1
    65    27    63    1
    66    27    64    1
    67    28    65    1
    68    28    66    1
    69    29    67    1
    70    29    68    1
    71    30    69    1
    72    30    70    1
@<TRIPOS>SUBSTRUCTURE
     1 RES1        1 GROUP             0 ****  ****    0  
@<TRIPOS>MOLECULE
40.3726
    70    72     1     0     0
SMALL
NO_CHARGES
****
Generated from the CSD

@<TRIPOS>ATOM
     1 C       94.4990  94.3105  83.7113   C.ar      1 RES1   0.0000
     2 N       94.5488  92.9966  84.0305   N.ar      1 RES1   0.0000
     3 C       95.7021  92.2977  83.9768   C.ar      1 RES1   0.0000
     4 C       96.8435  92.9874  83.5773   C.ar      1 RES1   0.0000
     5 C       96.7621  94.3324  83.2525   C.ar      1 RES1   0.0000
     6 N       95.5952  94.9952  83.3202   N.ar      1 RES1   0.0000
     7 N       98.0021  94.7164  82.9040   N.ar      1 RES1   0.0000
     8 C       98.8414  93.6663  83.0135   C.ar      1 RES1   0.0000
     9 N       98.1233  92.6003  83.4238   N.ar      1 RES1   0.0000
    10 C       98.3663  95.9731  82.5249   C.3       1 RES1   0.0000
    11 C       99.8893  96.1043  82.2980   C.3       1 RES1   0.0000
    12 C      100.0049  96.9111  80.9865   C.3       1 RES1   0.0000
    13 C       98.5633  97.4036  80.7501   C.3       1 RES1   0.0000
    14 O       97.7958  96.3100  81.2573   O.3       1 RES1   0.0000
    15 C       98.2381  97.6511  79.2640   C.3       1 RES1   0.0000
    16 O       97.0103  98.3801  79.1805   O.3       1 RES1   0.0000
    17 P       95.8115  97.8599  78.2579   P.3       1 RES1   0.0000
    18 O       96.3621  97.0608  77.1273   O.2       1 RES1   0.0000
    19 O       94.8263  96.9461  79.1260   O.3       1 RES1   0.0000
    20 O       95.0091  99.1240  77.6899   O.3       1 RES1   0.0000
    21 P       95.1541  99.2356  76.0985   P.3       1 RES1   0.0000
    22 O       96.5854  99.4800  75.7643   O.2       1 RES1   0.0000
    23 O       94.2781 100.4631  75.5621   O.3       1 RES1   0.0000
    24 O       94.6666  97.8732  75.4115   O.3       1 RES1   0.0000
    25 P       93.4149  98.1102  74.4416   P.3       1 RES1   0.0000
    26 O       93.7756  99.0799  73.3695   O.2       1 RES1   0.0000
    27 O       92.1968  98.7064  75.2901   O.3       1 RES1   0.0000
    28 O       92.9695  96.7232  73.7801   O.3       1 RES1   0.0000
    29 O      100.9339  97.9938  81.1168   O.3       1 RES1   0.0000
    30 O      100.5022  96.8079  83.3850   O.3       1 RES1   0.0000
    31 N       95.7513  90.9865  84.2958   N.pl3     1 RES1   0.0000
    32 H1      93.5495  94.8298  83.7714   H         1 RES1   0.0000
    33 H2      99.9060  93.6750  82.8084   H         1 RES1   0.0000
    34 H3      98.0379  96.7221  83.2621   H         1 RES1   0.0000
    35 H4     100.3616  95.1179  82.1678   H         1 RES1   0.0000
    36 H5     100.3027  96.2307  80.1734   H         1 RES1   0.0000
    37 H6      98.3720  98.3065  81.3504   H         1 RES1   0.0000
    38 H7      99.0421  98.2263  78.7814   H         1 RES1   0.0000
    39 H8      98.1205  96.6840  78.7523   H         1 RES1   0.0000
    40 H9      95.2979  96.1849  79.4433   H         1 RES1   0.0000
    41 H10     94.8265 101.2323  75.4627   H         1 RES1   0.0000
    42 H11     91.4736  98.9100  74.7086   H         1 RES1   0.0000
    43 H12     93.6423  96.0697  73.9299   H         1 RES1   0.0000
    44 H13    101.6314  97.9138  80.4765   H         1 RES1   0.0000
    45 H14    100.9615  96.2015  83.9550   H         1 RES1   0.0000
    46 H15     94.8940  90.4967  84.5887   H         1 RES1   0.0000
    47 H16     96.6442  90.4747  84.2463   H         1 RES1   0.0000
    48 ****    93.7098  92.5316  84.3133   Du        1 RES1   0.0000
    49 ****    95.5403  95.9663  83.0880   Du        1 RES1   0.0000
    50 ****    98.4807  91.6806  83.5860   Du        1 RES1   0.0000
    51 ****    97.8512  95.5297  80.6343   Du        1 RES1   0.0000
    52 ****    96.8395  96.5803  81.3687   Du        1 RES1   0.0000
    53 ****    96.2251  97.3669  76.1852   Du        1 RES1   0.0000
    54 ****    96.8687  96.2183  77.3106   Du        1 RES1   0.0000
    55 ****    94.0590  96.6496  78.5574   Du        1 RES1   0.0000
    56 ****    94.4815  97.4725  79.9031   Du        1 RES1   0.0000
    57 ****    97.3059  99.0284  76.2905   Du        1 RES1   0.0000
    58 ****    96.8256 100.0957  75.0137   Du        1 RES1   0.0000
    59 ****    93.5470 100.6593  76.2156   Du        1 RES1   0.0000
    60 ****    93.8787 100.2239  74.6771   Du        1 RES1   0.0000
    61 ****    94.5850  99.6584  73.4702   Du        1 RES1   0.0000
    62 ****    93.2082  99.1523  72.5492   Du        1 RES1   0.0000
    63 ****    92.4928  99.5393  75.7576   Du        1 RES1   0.0000
    64 ****    91.9005  98.0320  75.9664   Du        1 RES1   0.0000
    65 ****    92.8408  96.8494  72.7965   Du        1 RES1   0.0000
    66 ****    92.1110  96.4180  74.1921   Du        1 RES1   0.0000
    67 ****   101.3279  97.9801  82.0358   Du        1 RES1   0.0000
    68 ****   100.4531  98.8587  80.9731   Du        1 RES1   0.0000
    69 ****    99.7960  97.2830  83.9100   Du        1 RES1   0.0000
    70 ****   101.1523  97.4749  83.0210   Du        1 RES1   0.0000
@<TRIPOS>BOND
     1     1     2   ar
     2     2     3   ar
     3     3     4   ar
     4     4     5   ar
     5     5     6   ar
     6     1     6   ar
     7     5     7   ar
     8     7     8   ar
     9     8     9   ar
    10     4     9   ar
    11     7    10    1
    12    10    11    1
    13    11    12    1
    14    12    13    1
    15    13    14    1
    16    10    14    1
    17    13    15    1
    18    15    16    1
    19    16    17    1
    20    17    18    2
    21    17    19    1
    22    17    20    1
    23    20    21    1
    24    21    22    2
    25    21    23    1
    26    21    24    1
    27    24    25    1
    28    25    26    2
    29    25    27    1
    30    25    28    1
    31    12    29    1
    32    11    30    1
    33     3    31    1
    34     1    32    1
    35     8    33    1
    36    10    34    1
    37    11    35    1
    38    12    36    1
    39    13    37    1
    40    15    38    1
    41    15    39    1
    42    19    40    1
    43    23    41    1
    44    27    42    1
    45    28    43    1
    46    29    44    1
    47    30    45    1
    48    31    46    1
    49    31    47    1
    50     2    48    1
    51     6    49    1
    52     9    50    1
    53    14    51    1
    54    14    52    1
    55    18    53    1
    56    18    54    1
    57    19    55    1
    58    19    56    1
    59    22    57    1
    60    22    58    1
    61    23    59    1
    62    23    60    1
    63    26    61    1
    64    26    62    1
    65    27    63    1
    66    27    64    1
    67    28    65    1
    68    28    66    1
    69    29    67    1
    70    29    68    1
    71    30    69    1
    72    30    70    1
@<TRIPOS>SUBSTRUCTURE
     1 RES1        1 GROUP             0 ****  ****    0  
@<TRIPOS>MOLECULE
39.4502
    70    72     1     0     0
SMALL
NO_CHARGES
****
Generated from the CSD

@<TRIPOS>ATOM
     1 C       97.5627  93.8347  82.8890   C.ar      1 RES1   0.0000
     2 N       98.6430  93.2189  83.4225   N.ar      1 RES1   0.0000
     3 C       99.8247  93.8558  83.5613   C.ar      1 RES1   0.0000
     4 C       99.8869  95.1782  83.1308   C.ar      1 RES1   0.0000
     5 C       98.7655  95.7823  82.5845   C.ar      1 RES1   0.0000
     6 N       97.6048  95.1159  82.4645   N.ar      1 RES1   0.0000
     7 N       99.1268  97.0358  82.2609   N.ar      1 RES1   0.0000
     8 C      100.4187  97.2283  82.5973   C.ar      1 RES1   0.0000
     9 N      100.8863  96.0796  83.1285   N.ar      1 RES1   0.0000
    10 C       98.3142  97.9774  81.7054   C.3       1 RES1   0.0000
    11 C       98.7377  98.3498  80.2666   C.3       1 RES1   0.0000
    12 C       97.4081  98.3892  79.4825   C.3       1 RES1   0.0000
    13 C       96.3433  98.3214  80.5954   C.3       1 RES1   0.0000
    14 O       96.9816  97.4793  81.5574   O.3       1 RES1   0.0000
    15 C       95.0116  97.7004  80.1298   C.3       1 RES1   0.0000
    16 O       94.3994  98.5859  79.1881   O.3       1 RES1   0.0000
    17 P       93.7933  99.9891  79.6595   P.3       1 RES1   0.0000
    18 O       93.7468 100.0381  81.1480   O.2       1 RES1   0.0000
    19 O       94.7140 101.1791  79.1160   O.3       1 RES1   0.0000
    20 O       92.3145 100.1407  79.0642   O.3       1 RES1   0.0000
    21 P       91.3819  98.9166  79.5093   P.3       1 RES1   0.0000
    22 O       92.0286  97.6432  79.0846   O.2       1 RES1   0.0000
    23 O       89.9548  99.0386  78.7946   O.3       1 RES1   0.0000
    24 O       91.1999  98.9226  81.1007   O.3       1 RES1   0.0000
    25 P       89.6887  99.2371  81.5259   P.3       1 RES1   0.0000
    26 O       89.3045 100.6039  81.0741   O.2       1 RES1   0.0000
    27 O       89.5641  99.1648  83.1192   O.3       1 RES1   0.0000
    28 O       88.7040  98.1606  80.8692   O.3       1 RES1   0.0000
    29 O       97.2973  99.5821  78.6972   O.3       1 RES1   0.0000
    30 O       99.3800  99.6302  80.2456   O.3       1 RES1   0.0000
    31 N      100.9025  93.2409  84.0941   N.pl3     1 RES1   0.0000
    32 H1      96.6344  93.2823  82.7995   H         1 RES1   0.0000
    33 H2     100.9840  98.1439  82.4648   H         1 RES1   0.0000
    34 H3      98.2768  98.8866  82.3253   H         1 RES1   0.0000
    35 H4      99.3999  97.5841  79.8329   H         1 RES1   0.0000
    36 H5      97.3402  97.4911  78.8488   H         1 RES1   0.0000
    37 H6      96.1821  99.3235  81.0221   H         1 RES1   0.0000
    38 H7      95.1839  96.7218  79.6579   H         1 RES1   0.0000
    39 H8      94.3458  97.5776  80.9972   H         1 RES1   0.0000
    40 H9      95.2050 101.5544  79.8375   H         1 RES1   0.0000
    41 H10     89.9768  98.5998  77.9524   H         1 RES1   0.0000
    42 H11     90.2983  98.6772  83.4739   H         1 RES1   0.0000
    43 H12     88.9943  97.9616  79.9870   H         1 RES1   0.0000
    44 H13     96.8158 100.2501  79.1712   H         1 RES1   0.0000
    45 H14     98.8628 100.2519  79.7460   H         1 RES1   0.0000
    46 H15    100.8331  92.2617  84.4059   H         1 RES1   0.0000
    47 H16    101.7940  93.7485  84.1890   H         1 RES1   0.0000
    48 ****    98.5637  92.2679  83.7214   Du        1 RES1   0.0000
    49 ****    96.7966  95.5555  82.0726   Du        1 RES1   0.0000
    50 ****   101.8158  95.9246  83.4632   Du        1 RES1   0.0000
    51 ****    96.9995  96.5338  81.2322   Du        1 RES1   0.0000
    52 ****    96.4968  97.5222  82.4310   Du        1 RES1   0.0000
    53 ****    93.6489 100.9161  81.6165   Du        1 RES1   0.0000
    54 ****    93.8134  99.1930  81.6784   Du        1 RES1   0.0000
    55 ****    94.1379 101.8842  78.7024   Du        1 RES1   0.0000
    56 ****    95.3488 100.8229  78.4303   Du        1 RES1   0.0000
    57 ****    92.5505  97.6075  78.2323   Du        1 RES1   0.0000
    58 ****    91.9407  96.8243  79.6518   Du        1 RES1   0.0000
    59 ****    89.7329 100.0043  78.6598   Du        1 RES1   0.0000
    60 ****    89.2575  98.6137  79.3719   Du        1 RES1   0.0000
    61 ****    89.9927 101.3282  81.0312   Du        1 RES1   0.0000
    62 ****    88.3585 100.7970  80.8137   Du        1 RES1   0.0000
    63 ****    88.7100  98.7069  83.3660   Du        1 RES1   0.0000
    64 ****    89.5665 100.0911  83.4958   Du        1 RES1   0.0000
    65 ****    87.7762  98.5326  80.8388   Du        1 RES1   0.0000
    66 ****    88.7101  97.3248  81.4184   Du        1 RES1   0.0000
    67 ****    96.8165  99.3719  77.8459   Du        1 RES1   0.0000
    68 ****    98.2134  99.9237  78.4870   Du        1 RES1   0.0000
    69 ****   100.2826  99.5392  79.8250   Du        1 RES1   0.0000
    70 ****    99.4810  99.9636  81.1829   Du        1 RES1   0.0000
@<TRIPOS>BOND
     1     1     2   ar
     2     2     3   ar
     3     3     4   ar
     4     4     5   ar
     5     5     6   ar
     6     1     6   ar
     7     5     7   ar
     8     7     8   ar
     9     8     9   ar
    10     4     9   ar
    11     7    10    1
    12    10    11    1
    13    11    12    1
    14    12    13    1
    15    13    14    1
    16    10    14    1
    17    13    15    1
    18    15    16    1
    19    16    17    1
    20    17    18    2
    21    17    19    1
    22    17    20    1
    23    20    21    1
    24    21    22    2
    25    21    23    1
    26    21    24    1
    27    24    25    1
    28    25    26    2
    29    25    27    1
    30    25    28    1
    31    12    29    1
    32    11    30    1
    33     3    31    1
    34     1    32    1
    35     8    33    1
    36    10    34    1
    37    11    35    1
    38    12    36    1
    39    13    37    1
    40    15    38    1
    41    15    39    1
    42    19    40    1
    43    23    41    1
    44    27    42    1
    45    28    43    1
    46    29    44    1
    47    30    45    1
    48    31    46    1
    49    31    47    1
    50     2    48    1
    51     6    49    1
    52     9    50    1
    53    14    51    1
    54    14    52    1
    55    18    53    1
    56    18    54    1
    57    19    55    1
    58    19    56    1
    59    22    57    1
    60    22    58    1
    61    23    59    1
    62    23    60    1
    63    26    61    1
    64    26    62    1
    65    27    63    1
    66    27    64    1
    67    28    65    1
    68    28    66    1
    69    29    67    1
    70    29    68    1
    71    30    69    1
    72    30    70    1
@<TRIPOS>SUBSTRUCTURE
     1 RES1        1 GROUP             0 ****  ****    0  
@<TRIPOS>MOLECULE
32.5914
    70    72     1     0     0
SMALL
NO_CHARGES
****
Generated from the CSD

@<TRIPOS>ATOM
     1 C       95.9126  97.3995  77.5662   C.ar      1 RES1   0.0000
     2 N       96.7233  98.4770  77.6784   N.ar      1 RES1   0.0000
     3 C       96.5119  99.4284  78.6119   C.ar      1 RES1   0.0000
     4 C       95.4203  99.2550  79.4584   C.ar      1 RES1   0.0000
     5 C       94.6046  98.1433  79.3179   C.ar      1 RES1   0.0000
     6 N       94.8485  97.2155  78.3770   N.ar      1 RES1   0.0000
     7 N       93.6471  98.2519  80.2550   N.ar      1 RES1   0.0000
     8 C       93.8495  99.3768  80.9710   C.ar      1 RES1   0.0000
     9 N       94.9404  99.9960  80.4742   N.ar      1 RES1   0.0000
    10 C       92.6432  97.3568  80.4709   C.3       1 RES1   0.0000
    11 C       91.2452  97.9623  80.2119   C.3       1 RES1   0.0000
    12 C       90.5036  96.8666  79.4157   C.3       1 RES1   0.0000
    13 C       91.4369  95.6465  79.5464   C.3       1 RES1   0.0000
    14 O       92.7251  96.2652  79.5504   O.3       1 RES1   0.0000
    15 C       91.3150  94.6554  78.3724   C.3       1 RES1   0.0000
    16 O       91.7039  93.3568  78.8288   O.3       1 RES1   0.0000
    17 P       90.6104  92.3105  79.3466   P.3       1 RES1   0.0000
    18 O       89.9615  92.8361  80.5806   O.2       1 RES1   0.0000
    19 O       89.5019  92.0909  78.2142   O.3       1 RES1   0.0000
    20 O       91.3353  90.9185  79.6644   O.3       1 RES1   0.0000
    21 P       90.2839  89.8180  80.1643   P.3       1 RES1   0.0000
    22 O       89.2812  89.5896  79.0861   O.2       1 RES1   0.0000
    23 O       89.5292  90.3485  81.4723   O.3       1 RES1   0.0000
    24 O       91.0456  88.4469  80.4894   O.3       1 RES1   0.0000
    25 P       90.0377  87.3127  81.0004   P.3       1 RES1   0.0000
    26 O       90.4005  85.9983  80.3996   O.2       1 RES1   0.0000
    27 O       88.5487  87.6918  80.5549   O.3       1 RES1   0.0000
    28 O       90.1016  87.2071  82.5956   O.3       1 RES1   0.0000
    29 O       89.2017  96.6147  79.9575   O.3       1 RES1   0.0000
    30 O       90.5763  98.2341  81.4493   O.3       1 RES1   0.0000
    31 N       97.3215 100.5034  78.7236   N.pl3     1 RES1   0.0000
    32 H1      96.1238  96.6608  76.8017   H         1 RES1   0.0000
    33 H2      93.2435  99.7244  81.8000   H         1 RES1   0.0000
    34 H3      92.6851  96.9509  81.4936   H         1 RES1   0.0000
    35 H4      91.3115  98.8790  79.6051   H         1 RES1   0.0000
    36 H5      90.4396  97.1735  78.3600   H         1 RES1   0.0000
    37 H6      91.2606  95.1406  80.5083   H         1 RES1   0.0000
    38 H7      90.2806  94.6208  77.9996   H         1 RES1   0.0000
    39 H8      91.9876  94.9703  77.5604   H         1 RES1   0.0000
    40 H9      89.0993  92.9241  77.9995   H         1 RES1   0.0000
    41 H10     90.1359  90.3866  82.2022   H         1 RES1   0.0000
    42 H11     88.1954  88.3440  81.1485   H         1 RES1   0.0000
    43 H12     90.0944  88.0792  82.9718   H         1 RES1   0.0000
    44 H13     89.2566  96.4387  80.8897   H         1 RES1   0.0000
    45 H14     91.0646  97.8666  82.1774   H         1 RES1   0.0000
    46 H15     98.1233 100.6108  78.0862   H         1 RES1   0.0000
    47 H16     97.1387 101.2166  79.4444   H         1 RES1   0.0000
    48 ****    97.4986  98.5707  77.0538   Du        1 RES1   0.0000
    49 ****    94.2597  96.4130  78.2801   Du        1 RES1   0.0000
    50 ****    95.3262 100.8576  80.8041   Du        1 RES1   0.0000
    51 ****    92.9513  96.5998  78.6356   Du        1 RES1   0.0000
    52 ****    93.4217  95.6125  79.8482   Du        1 RES1   0.0000
    53 ****    90.5177  93.0631  81.3801   Du        1 RES1   0.0000
    54 ****    88.9699  92.9619  80.6094   Du        1 RES1   0.0000
    55 ****    88.8028  91.4596  78.5500   Du        1 RES1   0.0000
    56 ****    89.9319  91.7079  77.3967   Du        1 RES1   0.0000
    57 ****    89.1102  90.3002  78.4036   Du        1 RES1   0.0000
    58 ****    88.7793  88.7256  79.0449   Du        1 RES1   0.0000
    59 ****    88.7786  89.7272  81.6970   Du        1 RES1   0.0000
    60 ****    89.1639  91.2627  81.2966   Du        1 RES1   0.0000
    61 ****    89.6827  85.3538  80.1362   Du        1 RES1   0.0000
    62 ****    91.3618  85.7607  80.2599   Du        1 RES1   0.0000
    63 ****    87.9750  86.8731  80.5800   Du        1 RES1   0.0000
    64 ****    88.5629  88.0605  79.6255   Du        1 RES1   0.0000
    65 ****    90.9410  86.7350  82.8649   Du        1 RES1   0.0000
    66 ****    89.3097  86.6945  82.9275   Du        1 RES1   0.0000
    67 ****    88.8011  95.8230  79.4964   Du        1 RES1   0.0000
    68 ****    88.6225  97.4160  79.8077   Du        1 RES1   0.0000
    69 ****    89.6630  97.8276  81.4264   Du        1 RES1   0.0000
    70 ****    90.4979  99.2235  81.5711   Du        1 RES1   0.0000
@<TRIPOS>BOND
     1     1     2   ar
     2     2     3   ar
     3     3     4   ar
     4     4     5   ar
     5     5     6   ar
     6     1     6   ar
     7     5     7   ar
     8     7     8   ar
     9     8     9   ar
    10     4     9   ar
    11     7    10    1
    12    10    11    1
    13    11    12    1
    14    12    13    1
    15    13    14    1
    16    10    14    1
    17    13    15    1
    18    15    16    1
    19    16    17    1
    20    17    18    2
    21    17    19    1
    22    17    20    1
    23    20    21    1
    24    21    22    2
    25    21    23    1
    26    21    24    1
    27    24    25    1
    28    25    26    2
    29    25    27    1
    30    25    28    1
    31    12    29    1
    32    11    30    1
    33     3    31    1
    34     1    32    1
    35     8    33    1
    36    10    34    1
    37    11    35    1
    38    12    36    1
    39    13    37    1
    40    15    38    1
    41    15    39    1
    42    19    40    1
    43    23    41    1
    44    27    42    1
    45    28    43    1
    46    29    44    1
    47    30    45    1
    48    31    46    1
    49    31    47    1
    50     2    48    1
    51     6    49    1
    52     9    50    1
    53    14    51    1
    54    14    52    1
    55    18    53    1
    56    18    54    1
    57    19    55    1
    58    19    56    1
    59    22    57    1
    60    22    58    1
    61    23    59    1
    62    23    60    1
    63    26    61    1
    64    26    62    1
    65    27    63    1
    66    27    64    1
    67    28    65    1
    68    28    66    1
    69    29    67    1
    70    29    68    1
    71    30    69    1
    72    30    70    1
@<TRIPOS>SUBSTRUCTURE
     1 RES1        1 GROUP             0 ****  ****    0  
@<TRIPOS>MOLECULE
32.5478
    70    72     1     0     0
SMALL
NO_CHARGES
****
Generated from the CSD

@<TRIPOS>ATOM
     1 C      100.5443  96.2328  81.4604   C.ar      1 RES1   0.0000
     2 N      100.8857  96.0732  82.7599   N.ar      1 RES1   0.0000
     3 C      100.4116  96.8918  83.7226   C.ar      1 RES1   0.0000
     4 C       99.5534  97.9120  83.3216   C.ar      1 RES1   0.0000
     5 C       99.2241  98.0541  81.9828   C.ar      1 RES1   0.0000
     6 N       99.7149  97.2174  81.0528   N.ar      1 RES1   0.0000
     7 N       98.3982  99.1115  81.9032   N.ar      1 RES1   0.0000
     8 C       98.1983  99.6151  83.1383   C.ar      1 RES1   0.0000
     9 N       98.9160  98.8768  84.0102   N.ar      1 RES1   0.0000
    10 C       97.8276  99.5883  80.7619   C.3       1 RES1   0.0000
    11 C       98.3983  98.9192  79.4911   C.3       1 RES1   0.0000
    12 C       97.1508  98.6236  78.6304   C.3       1 RES1   0.0000
    13 C       96.0340  99.4025  79.3535   C.3       1 RES1   0.0000
    14 O       96.4318  99.2789  80.7205   O.3       1 RES1   0.0000
    15 C       94.6317  98.7993  79.1402   C.3       1 RES1   0.0000
    16 O       94.3585  98.7641  77.7366   O.3       1 RES1   0.0000
    17 P       93.2998  97.7265  77.1354   P.3       1 RES1   0.0000
    18 O       93.8547  96.3459  77.2125   O.2       1 RES1   0.0000
    19 O       91.9405  97.8020  77.9756   O.3       1 RES1   0.0000
    20 O       93.0082  98.1106  75.6084   O.3       1 RES1   0.0000
    21 P       94.3702  98.2689  74.7800   P.3       1 RES1   0.0000
    22 O       95.5135  97.9110  75.6658   O.2       1 RES1   0.0000
    23 O       94.5376  99.7876  74.3030   O.3       1 RES1   0.0000
    24 O       94.3494  97.2946  73.5087   O.3       1 RES1   0.0000
    25 P       93.2116  97.7075  72.4607   P.3       1 RES1   0.0000
    26 O       92.4957  98.9244  72.9367   O.2       1 RES1   0.0000
    27 O       92.1607  96.5089  72.3249   O.3       1 RES1   0.0000
    28 O       93.8688  97.9989  71.0314   O.3       1 RES1   0.0000
    29 O       97.3304  99.0618  77.2785   O.3       1 RES1   0.0000
    30 O       99.2888  99.8101  78.8088   O.3       1 RES1   0.0000
    31 N      100.7523  96.7319  85.0194   N.pl3     1 RES1   0.0000
    32 H1     100.9493  95.5490  80.7234   H         1 RES1   0.0000
    33 H2      97.5718 100.4637  83.3887   H         1 RES1   0.0000
    34 H3      97.9422 100.6808  80.6860   H         1 RES1   0.0000
    35 H4      98.9132  97.9758  79.7316   H         1 RES1   0.0000
    36 H5      96.9364  97.5442  78.6708   H         1 RES1   0.0000
    37 H6      96.0574 100.4606  79.0501   H         1 RES1   0.0000
    38 H7      94.5810  97.7803  79.5515   H         1 RES1   0.0000
    39 H8      93.8840  99.4342  79.6388   H         1 RES1   0.0000
    40 H9      91.7123  98.7115  78.1275   H         1 RES1   0.0000
    41 H10     94.4575  99.8401  73.3580   H         1 RES1   0.0000
    42 H11     92.4870  95.8687  71.7035   H         1 RES1   0.0000
    43 H12     94.7324  98.3760  71.1503   H         1 RES1   0.0000
    44 H13     97.8354  98.4254  76.7857   H         1 RES1   0.0000
    45 H14     99.1992 100.6930  79.1494   H         1 RES1   0.0000
    46 H15    101.3890  95.9699  85.2929   H         1 RES1   0.0000
    47 H16    100.3774  97.3705  85.7358   H         1 RES1   0.0000
    48 ****   101.5048  95.3300  83.0135   Du        1 RES1   0.0000
    49 ****    99.4731  97.3208  80.0880   Du        1 RES1   0.0000
    50 ****    98.9657  99.0215  84.9984   Du        1 RES1   0.0000
    51 ****    96.2742  98.3459  81.0440   Du        1 RES1   0.0000
    52 ****    95.9178  99.9204  81.2901   Du        1 RES1   0.0000
    53 ****    93.5064  95.7046  77.8962   Du        1 RES1   0.0000
    54 ****    94.5753  96.0606  76.5806   Du        1 RES1   0.0000
    55 ****    92.0648  97.3385  78.8529   Du        1 RES1   0.0000
    56 ****    91.2069  97.3552  77.4635   Du        1 RES1   0.0000
    57 ****    96.4311  98.2511  75.4600   Du        1 RES1   0.0000
    58 ****    95.3633  97.3305  76.4662   Du        1 RES1   0.0000
    59 ****    95.4379 100.1245  74.5788   Du        1 RES1   0.0000
    60 ****    93.8273 100.3488  74.7278   Du        1 RES1   0.0000
    61 ****    93.0088  99.6771  73.3493   Du        1 RES1   0.0000
    62 ****    91.5021  98.9885  72.8436   Du        1 RES1   0.0000
    63 ****    91.2849  96.8688  72.0033   Du        1 RES1   0.0000
    64 ****    92.0350  96.0737  73.2164   Du        1 RES1   0.0000
    65 ****    93.2925  98.6395  70.5240   Du        1 RES1   0.0000
    66 ****    93.9465  97.1432  70.5198   Du        1 RES1   0.0000
    67 ****    97.8140  99.9371  77.2780   Du        1 RES1   0.0000
    68 ****    96.4350  99.1756  76.8479   Du        1 RES1   0.0000
    69 ****    99.0714  99.8098  77.8327   Du        1 RES1   0.0000
    70 ****   100.2303  99.4999  78.9406   Du        1 RES1   0.0000
@<TRIPOS>BOND
     1     1     2   ar
     2     2     3   ar
     3     3     4   ar
     4     4     5   ar
     5     5     6   ar
     6     1     6   ar
     7     5     7   ar
     8     7     8   ar
     9     8     9   ar
    10     4     9   ar
    11     7    10    1
    12    10    11    1
    13    11    12    1
    14    12    13    1
    15    13    14    1
    16    10    14    1
    17    13    15    1
    18    15    16    1
    19    16    17    1
    20    17    18    2
    21    17    19    1
    22    17    20    1
    23    20    21    1
    24    21    22    2
    25    21    23    1
    26    21    24    1
    27    24    25    1
    28    25    26    2
    29    25    27    1
    30    25    28    1
    31    12    29    1
    32    11    30    1
    33     3    31    1
    34     1    32    1
    35     8    33    1
    36    10    34    1
    37    11    35    1
    38    12    36    1
    39    13    37    1
    40    15    38    1
    41    15    39    1
    42    19    40    1
    43    23    41    1
    44    27    42    1
    45    28    43    1
    46    29    44    1
    47    30    45    1
    48    31    46    1
    49    31    47    1
    50     2    48    1
    51     6    49    1
    52     9    50    1
    53    14    51    1
    54    14    52    1
    55    18    53    1
    56    18    54    1
    57    19    55    1
    58    19    56    1
    59    22    57    1
    60    22    58    1
    61    23    59    1
    62    23    60    1
    63    26    61    1
    64    26    62    1
    65    27    63    1
    66    27    64    1
    67    28    65    1
    68    28    66    1
    69    29    67    1
    70    29    68    1
    71    30    69    1
    72    30    70    1
@<TRIPOS>SUBSTRUCTURE
     1 RES1        1 GROUP             0 ****  ****    0  
