@<TRIPOS>MOLECULE
ATP|ATP|mol2|1|dock1
    70    72     1     0     0
SMALL
NO_CHARGES
****
Generated from the CSD

@<TRIPOS>ATOM
     1 C       95.1939  90.5416  82.4537   C.ar      1 RES1   0.0000
     2 N       93.8417  90.5484  82.4074   N.ar      1 RES1   0.0000
     3 C       93.1304  91.6715  82.6408   C.ar      1 RES1   0.0000
     4 C       93.8487  92.8279  82.9319   C.ar      1 RES1   0.0000
     5 C       95.2336  92.7911  82.9751   C.ar      1 RES1   0.0000
     6 N       95.9069  91.6530  82.7359   N.ar      1 RES1   0.0000
     7 N       95.6388  94.0356  83.2809   N.ar      1 RES1   0.0000
     8 C       94.5606  94.8341  83.4186   C.ar      1 RES1   0.0000
     9 N       93.4581  94.0863  83.2053   N.ar      1 RES1   0.0000
    10 C       96.9313  94.4383  83.4331   C.3       1 RES1   0.0000
    11 C       97.9410  93.3254  83.0645   C.3       1 RES1   0.0000
    12 C       98.8609  93.9962  82.0246   C.3       1 RES1   0.0000
    13 C       98.6251  95.4928  82.2943   C.3       1 RES1   0.0000
    14 O       97.2150  95.5103  82.5265   O.3       1 RES1   0.0000
    15 C       98.9888  96.3761  81.0853   C.3       1 RES1   0.0000
    16 O       99.8838  97.3942  81.5396   O.3       1 RES1   0.0000
    17 P      101.2734  97.7711  80.8436   P.3       1 RES1   0.0000
    18 O      101.9626  98.8310  81.6322   O.2       1 RES1   0.0000
    19 O      102.2067  96.4739  80.7638   O.3       1 RES1   0.0000
    20 O      100.9645  98.3034  79.3657   O.3       1 RES1   0.0000
    21 P      100.0574  99.6224  79.4223   P.3       1 RES1   0.0000
    22 O       99.5259  99.7846  80.8047   O.2       1 RES1   0.0000
    23 O       98.8346  99.4489  78.4038   O.3       1 RES1   0.0000
    24 O      100.9397 100.8998  79.0250   O.3       1 RES1   0.0000
    25 P      101.5457 100.7817  77.5475   P.3       1 RES1   0.0000
    26 O      102.3499  99.5331  77.4278   O.2       1 RES1   0.0000
    27 O      102.4929 102.0386  77.2605   O.3       1 RES1   0.0000
    28 O      100.3596 100.7581  76.4737   O.3       1 RES1   0.0000
    29 O      100.2359  93.6355  82.1962   O.3       1 RES1   0.0000
    30 O       98.7027  92.9416  84.2158   O.3       1 RES1   0.0000
    31 N       91.7810  91.6780  82.5952   N.pl3     1 RES1   0.0000
    32 H1      95.7213  89.6151  82.2580   H         1 RES1   0.0000
    33 H2      94.5745  95.8911  83.6598   H         1 RES1   0.0000
    34 H3      97.1257  94.7888  84.4583   H         1 RES1   0.0000
    35 H4      97.4499  92.4426  82.6261   H         1 RES1   0.0000
    36 H5      98.5067  93.7478  81.0119   H         1 RES1   0.0000
    37 H6      99.1712  95.8015  83.1991   H         1 RES1   0.0000
    38 H7      98.0814  96.8207  80.6502   H         1 RES1   0.0000
    39 H8      99.4996  95.7635  80.3274   H         1 RES1   0.0000
    40 H9     102.3061  96.2076  79.8574   H         1 RES1   0.0000
    41 H10     99.1598  99.2191  77.5415   H         1 RES1   0.0000
    42 H11    103.3750 101.7358  77.0803   H         1 RES1   0.0000
    43 H12    100.0765  99.8624  76.3327   H         1 RES1   0.0000
    44 H13    100.3721  93.2620  83.0595   H         1 RES1   0.0000
    45 H14     99.1191  93.7008  84.6079   H         1 RES1   0.0000
    46 H15     91.2702  90.8105  82.3780   H         1 RES1   0.0000
    47 H16     91.2611  92.5487  82.7775   H         1 RES1   0.0000
    48 ****    93.3570  89.6999  82.1950   Du        1 RES1   0.0000
    49 ****    96.9062  91.6299  82.7660   Du        1 RES1   0.0000
    50 ****    92.5132  94.4112  83.2437   Du        1 RES1   0.0000
    51 ****    96.7229  95.3734  81.6668   Du        1 RES1   0.0000
    52 ****    96.9435  96.3838  82.9306   Du        1 RES1   0.0000
    53 ****   101.5661  99.1518  82.4924   Du        1 RES1   0.0000
    54 ****   102.8217  99.2215  81.3012   Du        1 RES1   0.0000
    55 ****   101.7879  95.7302  81.2850   Du        1 RES1   0.0000
    56 ****   103.1049  96.6861  81.1487   Du        1 RES1   0.0000
    57 ****    99.9777  99.3277  81.5709   Du        1 RES1   0.0000
    58 ****    98.7174 100.3505  80.9664   Du        1 RES1   0.0000
    59 ****    98.3260 100.3081  78.3477   Du        1 RES1   0.0000
    60 ****    98.2294  98.7242  78.7334   Du        1 RES1   0.0000
    61 ****   103.1458  99.5071  76.8229   Du        1 RES1   0.0000
    62 ****   102.0938  98.7212  77.9524   Du        1 RES1   0.0000
    63 ****   102.5031 102.6379  78.0609   Du        1 RES1   0.0000
    64 ****   102.1460 102.5438  76.4703   Du        1 RES1   0.0000
    65 ****   100.6842 101.1446  75.6105   Du        1 RES1   0.0000
    66 ****    99.5915 101.3006  76.8140   Du        1 RES1   0.0000
    67 ****   100.8063  94.4507  82.0953   Du        1 RES1   0.0000
    68 ****   100.4901  92.9627  81.5014   Du        1 RES1   0.0000
    69 ****    99.4059  92.2856  83.9415   Du        1 RES1   0.0000
    70 ****    98.0942  92.5171  84.8863   Du        1 RES1   0.0000
@<TRIPOS>BOND
     1     1     2   ar
     2     2     3   ar
     3     3     4   ar
     4     4     5   ar
     5     5     6   ar
     6     1     6   ar
     7     5     7   ar
     8     7     8   ar
     9     8     9   ar
    10     4     9   ar
    11     7    10    1
    12    10    11    1
    13    11    12    1
    14    12    13    1
    15    13    14    1
    16    10    14    1
    17    13    15    1
    18    15    16    1
    19    16    17    1
    20    17    18    2
    21    17    19    1
    22    17    20    1
    23    20    21    1
    24    21    22    2
    25    21    23    1
    26    21    24    1
    27    24    25    1
    28    25    26    2
    29    25    27    1
    30    25    28    1
    31    12    29    1
    32    11    30    1
    33     3    31    1
    34     1    32    1
    35     8    33    1
    36    10    34    1
    37    11    35    1
    38    12    36    1
    39    13    37    1
    40    15    38    1
    41    15    39    1
    42    19    40    1
    43    23    41    1
    44    27    42    1
    45    28    43    1
    46    29    44    1
    47    30    45    1
    48    31    46    1
    49    31    47    1
    50     2    48    1
    51     6    49    1
    52     9    50    1
    53    14    51    1
    54    14    52    1
    55    18    53    1
    56    18    54    1
    57    19    55    1
    58    19    56    1
    59    22    57    1
    60    22    58    1
    61    23    59    1
    62    23    60    1
    63    26    61    1
    64    26    62    1
    65    27    63    1
    66    27    64    1
    67    28    65    1
    68    28    66    1
    69    29    67    1
    70    29    68    1
    71    30    69    1
    72    30    70    1
@<TRIPOS>SUBSTRUCTURE
     1 RES1        1 GROUP             0 ****  ****    0  
@<TRIPOS>MOLECULE
ATP|ATP|mol2|1|dock14
    70    72     1     0     0
SMALL
NO_CHARGES
****
Generated from the CSD

@<TRIPOS>ATOM
     1 C      101.5630  99.8534  77.4170   C.ar      1 RES1   0.0000
     2 N      102.4101 100.8967  77.5738   N.ar      1 RES1   0.0000
     3 C      103.0403 101.1279  78.7447   C.ar      1 RES1   0.0000
     4 C      102.7822 100.2444  79.7890   C.ar      1 RES1   0.0000
     5 C      101.9078  99.1855  79.6008   C.ar      1 RES1   0.0000
     6 N      101.2995  98.9874  78.4191   N.ar      1 RES1   0.0000
     7 N      101.8561  98.5215  80.7683   N.ar      1 RES1   0.0000
     8 C      102.6682  99.1247  81.6604   C.ar      1 RES1   0.0000
     9 N      103.2360 100.1881  81.0546   N.ar      1 RES1   0.0000
    10 C      101.1039  97.4146  81.0232   C.3       1 RES1   0.0000
    11 C      101.2657  96.9165  82.4790   C.3       1 RES1   0.0000
    12 C       99.8177  96.8462  83.0043   C.3       1 RES1   0.0000
    13 C       98.9981  96.7972  81.7028   C.3       1 RES1   0.0000
    14 O       99.7135  97.7330  80.8934   O.3       1 RES1   0.0000
    15 C       97.5405  97.2543  81.9042   C.3       1 RES1   0.0000
    16 O       97.0459  97.7107  80.6429   O.3       1 RES1   0.0000
    17 P       95.5010  97.9135  80.2824   P.3       1 RES1   0.0000
    18 O       95.3656  98.3446  78.8625   O.2       1 RES1   0.0000
    19 O       94.7108  96.5395  80.5003   O.3       1 RES1   0.0000
    20 O       94.9040  99.0374  81.2539   O.3       1 RES1   0.0000
    21 P       93.3532  99.2855  80.9389   P.3       1 RES1   0.0000
    22 O       92.9211 100.5478  81.6020   O.2       1 RES1   0.0000
    23 O       92.5069  98.0622  81.5302   O.3       1 RES1   0.0000
    24 O       93.1377  99.4012  79.3551   O.3       1 RES1   0.0000
    25 P       93.6751 100.7917  78.7705   P.3       1 RES1   0.0000
    26 O       92.9863 101.9262  79.4476   O.2       1 RES1   0.0000
    27 O       93.3699 100.8612  77.2016   O.3       1 RES1   0.0000
    28 O       95.2534 100.9073  79.0071   O.3       1 RES1   0.0000
    29 O       99.5869  95.6932  83.8213   O.3       1 RES1   0.0000
    30 O      101.8563  95.6112  82.4969   O.3       1 RES1   0.0000
    31 N      103.8851 102.1695  78.9012   N.pl3     1 RES1   0.0000
    32 H1     101.0809  99.7081  76.4572   H         1 RES1   0.0000
    33 H2     102.8357  98.8129  82.6852   H         1 RES1   0.0000
    34 H3     101.3406  96.5975  80.3245   H         1 RES1   0.0000
    35 H4     101.8616  97.6082  83.0947   H         1 RES1   0.0000
    36 H5      99.5829  97.7742  83.5486   H         1 RES1   0.0000
    37 H6      99.0483  95.7880  81.2656   H         1 RES1   0.0000
    38 H7      97.4920  98.0567  82.6553   H         1 RES1   0.0000
    39 H8      96.9336  96.3993  82.2378   H         1 RES1   0.0000
    40 H9      95.3130  95.8090  80.4211   H         1 RES1   0.0000
    41 H10     93.0798  97.3253  81.7060   H         1 RES1   0.0000
    42 H11     92.6331 100.2976  76.9971   H         1 RES1   0.0000
    43 H12     95.4566 101.7541  79.3864   H         1 RES1   0.0000
    44 H13    100.0624  95.7708  84.6407   H         1 RES1   0.0000
    45 H14    102.3020  95.4586  83.3225   H         1 RES1   0.0000
    46 H15    104.0612 102.8107  78.1147   H         1 RES1   0.0000
    47 H16    104.3539 102.3245  79.8055   H         1 RES1   0.0000
    48 ****   102.5733 101.5121  76.8027   Du        1 RES1   0.0000
    49 ****   100.6705  98.2215  78.2857   Du        1 RES1   0.0000
    50 ****   103.8829 100.8250  81.4740   Du        1 RES1   0.0000
    51 ****    99.5426  98.6652  81.2123   Du        1 RES1   0.0000
    52 ****    99.4291  97.6500  79.9383   Du        1 RES1   0.0000
    53 ****    94.4741  98.3059  78.4111   Du        1 RES1   0.0000
    54 ****    96.1662  98.6725  78.3610   Du        1 RES1   0.0000
    55 ****    93.9929  96.4553  79.8093   Du        1 RES1   0.0000
    56 ****    94.2988  96.5335  81.4115   Du        1 RES1   0.0000
    57 ****    92.6367 100.5370  82.5606   Du        1 RES1   0.0000
    58 ****    92.9154 101.4058  81.0884   Du        1 RES1   0.0000
    59 ****    91.8109  97.7894  80.8660   Du        1 RES1   0.0000
    60 ****    92.0632  98.3467  82.3800   Du        1 RES1   0.0000
    61 ****    93.5027 102.5402  80.0446   Du        1 RES1   0.0000
    62 ****    92.0076 102.0738  79.3050   Du        1 RES1   0.0000
    63 ****    94.1743 100.5564  76.6917   Du        1 RES1   0.0000
    64 ****    93.1503 101.8027  76.9462   Du        1 RES1   0.0000
    65 ****    95.7291 100.8111  78.1328   Du        1 RES1   0.0000
    66 ****    95.5507 100.1834  79.6297   Du        1 RES1   0.0000
    67 ****    99.8976  94.8764  83.3352   Du        1 RES1   0.0000
    68 ****    98.6086  95.6148  84.0133   Du        1 RES1   0.0000
    69 ****   102.5157  95.5381  81.7486   Du        1 RES1   0.0000
    70 ****   101.1396  94.9240  82.3779   Du        1 RES1   0.0000
@<TRIPOS>BOND
     1     1     2   ar
     2     2     3   ar
     3     3     4   ar
     4     4     5   ar
     5     5     6   ar
     6     1     6   ar
     7     5     7   ar
     8     7     8   ar
     9     8     9   ar
    10     4     9   ar
    11     7    10    1
    12    10    11    1
    13    11    12    1
    14    12    13    1
    15    13    14    1
    16    10    14    1
    17    13    15    1
    18    15    16    1
    19    16    17    1
    20    17    18    2
    21    17    19    1
    22    17    20    1
    23    20    21    1
    24    21    22    2
    25    21    23    1
    26    21    24    1
    27    24    25    1
    28    25    26    2
    29    25    27    1
    30    25    28    1
    31    12    29    1
    32    11    30    1
    33     3    31    1
    34     1    32    1
    35     8    33    1
    36    10    34    1
    37    11    35    1
    38    12    36    1
    39    13    37    1
    40    15    38    1
    41    15    39    1
    42    19    40    1
    43    23    41    1
    44    27    42    1
    45    28    43    1
    46    29    44    1
    47    30    45    1
    48    31    46    1
    49    31    47    1
    50     2    48    1
    51     6    49    1
    52     9    50    1
    53    14    51    1
    54    14    52    1
    55    18    53    1
    56    18    54    1
    57    19    55    1
    58    19    56    1
    59    22    57    1
    60    22    58    1
    61    23    59    1
    62    23    60    1
    63    26    61    1
    64    26    62    1
    65    27    63    1
    66    27    64    1
    67    28    65    1
    68    28    66    1
    69    29    67    1
    70    29    68    1
    71    30    69    1
    72    30    70    1
@<TRIPOS>SUBSTRUCTURE
     1 RES1        1 GROUP             0 ****  ****    0  
@<TRIPOS>MOLECULE
ATP|ATP|mol2|1|dock20
    70    72     1     0     0
SMALL
NO_CHARGES
****
Generated from the CSD

@<TRIPOS>ATOM
     1 C      103.3855 100.8900  81.9287   C.ar      1 RES1   0.0000
     2 N      104.0421 101.6975  81.0641   N.ar      1 RES1   0.0000
     3 C      103.7753 101.6849  79.7411   C.ar      1 RES1   0.0000
     4 C      102.7920 100.8034  79.3009   C.ar      1 RES1   0.0000
     5 C      102.1373  99.9859  80.2087   C.ar      1 RES1   0.0000
     6 N      102.4302 100.0277  81.5195   N.ar      1 RES1   0.0000
     7 N      101.2617  99.2531  79.4996   N.ar      1 RES1   0.0000
     8 C      101.3472  99.5936  78.1974   C.ar      1 RES1   0.0000
     9 N      102.2933 100.5479  78.0774   N.ar      1 RES1   0.0000
    10 C      100.4178  98.3104  80.0049   C.3       1 RES1   0.0000
    11 C      100.9169  97.7362  81.3521   C.3       1 RES1   0.0000
    12 C       99.7188  97.9377  82.3016   C.3       1 RES1   0.0000
    13 C       98.5455  98.1022  81.3196   C.3       1 RES1   0.0000
    14 O       99.1495  98.9053  80.3034   O.3       1 RES1   0.0000
    15 C       97.3449  98.8340  81.9499   C.3       1 RES1   0.0000
    16 O       96.4541  99.2044  80.8948   O.3       1 RES1   0.0000
    17 P       94.9515  98.6803  80.7368   P.3       1 RES1   0.0000
    18 O       94.8978  97.2138  80.9948   O.2       1 RES1   0.0000
    19 O       94.0025  99.4399  81.7772   O.3       1 RES1   0.0000
    20 O       94.4681  98.9902  79.2422   O.3       1 RES1   0.0000
    21 P       94.5404  97.6665  78.3432   P.3       1 RES1   0.0000
    22 O       93.6149  96.6458  78.9102   O.2       1 RES1   0.0000
    23 O       96.0374  97.1006  78.3814   O.3       1 RES1   0.0000
    24 O       94.1117  98.0139  76.8386   O.3       1 RES1   0.0000
    25 P       95.2871  97.7224  75.7910   P.3       1 RES1   0.0000
    26 O       94.7608  97.8144  74.4002   O.2       1 RES1   0.0000
    27 O       95.8597  96.2482  76.0327   O.3       1 RES1   0.0000
    28 O       96.4664  98.7857  75.9873   O.3       1 RES1   0.0000
    29 O       99.5238  96.8246  83.1809   O.3       1 RES1   0.0000
    30 O      101.2081  96.3393  81.2217   O.3       1 RES1   0.0000
    31 N      104.4310 102.4905  78.8784   N.pl3     1 RES1   0.0000
    32 H1     103.6340 100.9366  82.9827   H         1 RES1   0.0000
    33 H2     100.7612  99.1745  77.3872   H         1 RES1   0.0000
    34 H3     100.2574  97.4890  79.2897   H         1 RES1   0.0000
    35 H4     101.8004  98.2713  81.7340   H         1 RES1   0.0000
    36 H5      99.8557  98.8730  82.8664   H         1 RES1   0.0000
    37 H6      98.2537  97.1203  80.9159   H         1 RES1   0.0000
    38 H7      97.6859  99.7223  82.5021   H         1 RES1   0.0000
    39 H8      96.8218  98.1512  82.6361   H         1 RES1   0.0000
    40 H9      93.0990  99.1867  81.6287   H         1 RES1   0.0000
    41 H10     96.0791  96.3286  78.9330   H         1 RES1   0.0000
    42 H11     95.1411  95.6563  76.2212   H         1 RES1   0.0000
    43 H12     97.3057  98.3477  75.9085   H         1 RES1   0.0000
    44 H13     99.6638  96.0087  82.7139   H         1 RES1   0.0000
    45 H14    101.3344  96.1093  80.3081   H         1 RES1   0.0000
    46 H15    105.1550 103.1349  79.2265   H         1 RES1   0.0000
    47 H16    104.2089 102.4618  77.8726   H         1 RES1   0.0000
    48 ****   104.7427 102.3192  81.4142   Du        1 RES1   0.0000
    49 ****   101.9550  99.4379  82.1724   Du        1 RES1   0.0000
    50 ****   102.5755 100.9895  77.2257   Du        1 RES1   0.0000
    51 ****    99.2772  99.8403  80.6341   Du        1 RES1   0.0000
    52 ****    98.5737  98.9165  79.4859   Du        1 RES1   0.0000
    53 ****    95.0106  96.5687  80.2391   Du        1 RES1   0.0000
    54 ****    94.7490  96.8746  81.9237   Du        1 RES1   0.0000
    55 ****    94.0958 100.4278  81.6527   Du        1 RES1   0.0000
    56 ****    94.2678  99.1949  82.7097   Du        1 RES1   0.0000
    57 ****    92.8429  96.9314  79.4781   Du        1 RES1   0.0000
    58 ****    93.7656  95.6751  78.7228   Du        1 RES1   0.0000
    59 ****    96.6475  97.8030  78.7480   Du        1 RES1   0.0000
    60 ****    96.3244  96.8608  77.4540   Du        1 RES1   0.0000
    61 ****    94.9125  98.6434  73.8620   Du        1 RES1   0.0000
    62 ****    94.2558  97.0471  74.0049   Du        1 RES1   0.0000
    63 ****    96.4938  96.2595  76.8059   Du        1 RES1   0.0000
    64 ****    96.3401  95.9386  75.2121   Du        1 RES1   0.0000
    65 ****    96.3920  99.2022  76.8934   Du        1 RES1   0.0000
    66 ****    96.3944  99.4960  75.2871   Du        1 RES1   0.0000
    67 ****    98.5897  96.8450  83.5374   Du        1 RES1   0.0000
    68 ****   100.1717  96.8860  83.9402   Du        1 RES1   0.0000
    69 ****   100.4461  95.8083  81.5924   Du        1 RES1   0.0000
    70 ****   102.0414  96.1278  81.7324   Du        1 RES1   0.0000
@<TRIPOS>BOND
     1     1     2   ar
     2     2     3   ar
     3     3     4   ar
     4     4     5   ar
     5     5     6   ar
     6     1     6   ar
     7     5     7   ar
     8     7     8   ar
     9     8     9   ar
    10     4     9   ar
    11     7    10    1
    12    10    11    1
    13    11    12    1
    14    12    13    1
    15    13    14    1
    16    10    14    1
    17    13    15    1
    18    15    16    1
    19    16    17    1
    20    17    18    2
    21    17    19    1
    22    17    20    1
    23    20    21    1
    24    21    22    2
    25    21    23    1
    26    21    24    1
    27    24    25    1
    28    25    26    2
    29    25    27    1
    30    25    28    1
    31    12    29    1
    32    11    30    1
    33     3    31    1
    34     1    32    1
    35     8    33    1
    36    10    34    1
    37    11    35    1
    38    12    36    1
    39    13    37    1
    40    15    38    1
    41    15    39    1
    42    19    40    1
    43    23    41    1
    44    27    42    1
    45    28    43    1
    46    29    44    1
    47    30    45    1
    48    31    46    1
    49    31    47    1
    50     2    48    1
    51     6    49    1
    52     9    50    1
    53    14    51    1
    54    14    52    1
    55    18    53    1
    56    18    54    1
    57    19    55    1
    58    19    56    1
    59    22    57    1
    60    22    58    1
    61    23    59    1
    62    23    60    1
    63    26    61    1
    64    26    62    1
    65    27    63    1
    66    27    64    1
    67    28    65    1
    68    28    66    1
    69    29    67    1
    70    29    68    1
    71    30    69    1
    72    30    70    1
@<TRIPOS>SUBSTRUCTURE
     1 RES1        1 GROUP             0 ****  ****    0  
@<TRIPOS>MOLECULE
ATP|ATP|mol2|1|dock24
    70    72     1     0     0
SMALL
NO_CHARGES
****
Generated from the CSD

@<TRIPOS>ATOM
     1 C       92.0021  98.0841  78.0696   C.ar      1 RES1   0.0000
     2 N       91.8242  97.5279  76.8491   N.ar      1 RES1   0.0000
     3 C       92.8633  97.0632  76.1240   C.ar      1 RES1   0.0000
     4 C       94.1314  97.1798  76.6863   C.ar      1 RES1   0.0000
     5 C       94.2844  97.7563  77.9374   C.ar      1 RES1   0.0000
     6 N       93.2246  98.2069  78.6299   N.ar      1 RES1   0.0000
     7 N       95.6006  97.7354  78.2085   N.ar      1 RES1   0.0000
     8 C       96.2586  97.1631  77.1796   C.ar      1 RES1   0.0000
     9 N       95.3505  96.8237  76.2414   N.ar      1 RES1   0.0000
    10 C       96.1893  98.2159  79.3393   C.3       1 RES1   0.0000
    11 C       95.4395  97.7835  80.6217   C.3       1 RES1   0.0000
    12 C       96.5362  97.1237  81.4815   C.3       1 RES1   0.0000
    13 C       97.8251  97.6971  80.8666   C.3       1 RES1   0.0000
    14 O       97.5033  97.6622  79.4745   O.3       1 RES1   0.0000
    15 C       99.0603  96.8245  81.1619   C.3       1 RES1   0.0000
    16 O       99.1557  96.6652  82.5794   O.3       1 RES1   0.0000
    17 P      100.3997  96.0176  83.3479   P.3       1 RES1   0.0000
    18 O      101.4283  95.5774  82.3638   O.2       1 RES1   0.0000
    19 O      101.0400  97.0948  84.3427   O.3       1 RES1   0.0000
    20 O       99.8708  94.7596  84.1851   O.3       1 RES1   0.0000
    21 P       98.6263  94.0755  83.4443   P.3       1 RES1   0.0000
    22 O       98.3644  92.7469  84.0658   O.2       1 RES1   0.0000
    23 O       98.9961  93.8720  81.9002   O.3       1 RES1   0.0000
    24 O       97.3326  95.0098  83.5915   O.3       1 RES1   0.0000
    25 P       95.9706  94.1685  83.5581   P.3       1 RES1   0.0000
    26 O       95.9224  93.2359  84.7192   O.2       1 RES1   0.0000
    27 O       95.9061  93.3168  82.2054   O.3       1 RES1   0.0000
    28 O       94.7170  95.1610  83.6177   O.3       1 RES1   0.0000
    29 O       96.4169  97.4544  82.8695   O.3       1 RES1   0.0000
    30 O       94.9094  98.9290  81.2998   O.3       1 RES1   0.0000
    31 N       92.6856  96.5087  74.9057   N.pl3     1 RES1   0.0000
    32 H1      91.1364  98.4423  78.6147   H         1 RES1   0.0000
    33 H2      97.3291  97.0041  77.1146   H         1 RES1   0.0000
    34 H3      96.2750  99.3131  79.3134   H         1 RES1   0.0000
    35 H4      94.6335  97.0628  80.4128   H         1 RES1   0.0000
    36 H5      96.5122  96.0336  81.3277   H         1 RES1   0.0000
    37 H6      97.9729  98.7344  81.2048   H         1 RES1   0.0000
    38 H7      99.9681  97.2993  80.7610   H         1 RES1   0.0000
    39 H8      98.9261  95.8352  80.6994   H         1 RES1   0.0000
    40 H9     100.6524  97.0027  85.2051   H         1 RES1   0.0000
    41 H10     98.3129  93.3762  81.4648   H         1 RES1   0.0000
    42 H11     95.3611  92.5504  82.3394   H         1 RES1   0.0000
    43 H12     95.0127  96.0327  83.8519   H         1 RES1   0.0000
    44 H13     95.5014  97.4774  83.1241   H         1 RES1   0.0000
    45 H14     95.5705  99.6081  81.3731   H         1 RES1   0.0000
    46 H15     91.7382  96.4328  74.5091   H         1 RES1   0.0000
    47 H16     93.4956  96.1615  74.3719   H         1 RES1   0.0000
    48 ****    90.8994  97.4594  76.4749   Du        1 RES1   0.0000
    49 ****    93.3378  98.6208  79.5332   Du        1 RES1   0.0000
    50 ****    95.5491  96.3832  75.3659   Du        1 RES1   0.0000
    51 ****    97.5153  96.7192  79.1420   Du        1 RES1   0.0000
    52 ****    98.1616  98.2072  78.9553   Du        1 RES1   0.0000
    53 ****   101.8988  94.7040  82.4892   Du        1 RES1   0.0000
    54 ****   101.6480  96.1553  81.5778   Du        1 RES1   0.0000
    55 ****   100.8628  98.0155  83.9949   Du        1 RES1   0.0000
    56 ****   102.0270  96.9458  84.4039   Du        1 RES1   0.0000
    57 ****    98.8533  91.9376  83.7405   Du        1 RES1   0.0000
    58 ****    97.6996  92.6646  84.8083   Du        1 RES1   0.0000
    59 ****    99.8615  93.3759  81.8296   Du        1 RES1   0.0000
    60 ****    99.0876  94.7658  81.4611   Du        1 RES1   0.0000
    61 ****    96.2715  92.3035  84.6263   Du        1 RES1   0.0000
    62 ****    95.5410  93.5425  85.5912   Du        1 RES1   0.0000
    63 ****    96.8286  93.0290  81.9484   Du        1 RES1   0.0000
    64 ****    95.5169  93.8791  81.4757   Du        1 RES1   0.0000
    65 ****    94.0661  94.8346  84.3032   Du        1 RES1   0.0000
    66 ****    94.2720  95.1895  82.7226   Du        1 RES1   0.0000
    67 ****    96.8275  98.3517  83.0318   Du        1 RES1   0.0000
    68 ****    96.8942  96.7658  83.4154   Du        1 RES1   0.0000
    69 ****    94.6107  98.6603  82.2156   Du        1 RES1   0.0000
    70 ****    94.1287  99.2839  80.7854   Du        1 RES1   0.0000
@<TRIPOS>BOND
     1     1     2   ar
     2     2     3   ar
     3     3     4   ar
     4     4     5   ar
     5     5     6   ar
     6     1     6   ar
     7     5     7   ar
     8     7     8   ar
     9     8     9   ar
    10     4     9   ar
    11     7    10    1
    12    10    11    1
    13    11    12    1
    14    12    13    1
    15    13    14    1
    16    10    14    1
    17    13    15    1
    18    15    16    1
    19    16    17    1
    20    17    18    2
    21    17    19    1
    22    17    20    1
    23    20    21    1
    24    21    22    2
    25    21    23    1
    26    21    24    1
    27    24    25    1
    28    25    26    2
    29    25    27    1
    30    25    28    1
    31    12    29    1
    32    11    30    1
    33     3    31    1
    34     1    32    1
    35     8    33    1
    36    10    34    1
    37    11    35    1
    38    12    36    1
    39    13    37    1
    40    15    38    1
    41    15    39    1
    42    19    40    1
    43    23    41    1
    44    27    42    1
    45    28    43    1
    46    29    44    1
    47    30    45    1
    48    31    46    1
    49    31    47    1
    50     2    48    1
    51     6    49    1
    52     9    50    1
    53    14    51    1
    54    14    52    1
    55    18    53    1
    56    18    54    1
    57    19    55    1
    58    19    56    1
    59    22    57    1
    60    22    58    1
    61    23    59    1
    62    23    60    1
    63    26    61    1
    64    26    62    1
    65    27    63    1
    66    27    64    1
    67    28    65    1
    68    28    66    1
    69    29    67    1
    70    29    68    1
    71    30    69    1
    72    30    70    1
@<TRIPOS>SUBSTRUCTURE
     1 RES1        1 GROUP             0 ****  ****    0  
@<TRIPOS>MOLECULE
ATP|ATP|mol2|1|dock7
    70    72     1     0     0
SMALL
NO_CHARGES
****
Generated from the CSD

@<TRIPOS>ATOM
     1 C      105.6908  99.3088  82.1893   C.ar      1 RES1   0.0000
     2 N      106.3164 100.4089  81.7108   N.ar      1 RES1   0.0000
     3 C      105.7177 101.2372  80.8292   C.ar      1 RES1   0.0000
     4 C      104.4241 100.9118  80.4311   C.ar      1 RES1   0.0000
     5 C      103.8085  99.7771  80.9357   C.ar      1 RES1   0.0000
     6 N      104.4371  98.9767  81.8133   N.ar      1 RES1   0.0000
     7 N      102.5889  99.7230  80.3736   N.ar      1 RES1   0.0000
     8 C      102.4292 100.7811  79.5526   C.ar      1 RES1   0.0000
     9 N      103.5632 101.5111  79.5882   N.ar      1 RES1   0.0000
    10 C      101.6540  98.7557  80.5891   C.3       1 RES1   0.0000
    11 C      101.1853  98.7091  82.0628   C.3       1 RES1   0.0000
    12 C       99.6510  98.8247  81.9622   C.3       1 RES1   0.0000
    13 C       99.3849  98.4069  80.5053   C.3       1 RES1   0.0000
    14 O      100.4723  99.0469  79.8340   O.3       1 RES1   0.0000
    15 C       98.0353  98.9302  79.9771   C.3       1 RES1   0.0000
    16 O       97.9318  98.5632  78.5992   O.3       1 RES1   0.0000
    17 P       96.5867  98.6122  77.7355   P.3       1 RES1   0.0000
    18 O       95.5386  99.3706  78.4749   O.2       1 RES1   0.0000
    19 O       96.8717  99.3262  76.3324   O.3       1 RES1   0.0000
    20 O       96.0982  97.1083  77.4846   O.3       1 RES1   0.0000
    21 P       94.8747  97.0807  76.4511   P.3       1 RES1   0.0000
    22 O       93.8274  98.0329  76.9160   O.2       1 RES1   0.0000
    23 O       94.2649  95.6010  76.4166   O.3       1 RES1   0.0000
    24 O       95.3907  97.5073  74.9951   O.3       1 RES1   0.0000
    25 P       94.2112  97.5133  73.9120   P.3       1 RES1   0.0000
    26 O       92.9482  97.0275  74.5355   O.2       1 RES1   0.0000
    27 O       94.5985  96.5430  72.7004   O.3       1 RES1   0.0000
    28 O       93.9946  98.9965  73.3523   O.3       1 RES1   0.0000
    29 O       98.9753  97.9706  82.8919   O.3       1 RES1   0.0000
    30 O      101.5432  97.4572  82.6608   O.3       1 RES1   0.0000
    31 N      106.3424 102.3347  80.3513   N.pl3     1 RES1   0.0000
    32 H1     106.2122  98.6742  82.8966   H         1 RES1   0.0000
    33 H2     101.5464 101.0068  78.9649   H         1 RES1   0.0000
    34 H3     102.0242  97.7638  80.2875   H         1 RES1   0.0000
    35 H4     101.5922  99.5412  82.6584   H         1 RES1   0.0000
    36 H5      99.3558  99.8767  82.0998   H         1 RES1   0.0000
    37 H6      99.4596  97.3127  80.4092   H         1 RES1   0.0000
    38 H7      97.9763 100.0224  80.0951   H         1 RES1   0.0000
    39 H8      97.2161  98.4538  80.5362   H         1 RES1   0.0000
    40 H9      97.7787  99.1915  76.0842   H         1 RES1   0.0000
    41 H10     94.6167  95.1215  75.6761   H         1 RES1   0.0000
    42 H11     95.0685  95.7889  73.0364   H         1 RES1   0.0000
    43 H12     93.8113  99.5852  74.0749   H         1 RES1   0.0000
    44 H13     98.4568  97.3240  82.4266   H         1 RES1   0.0000
    45 H14    102.3502  97.1262  82.2828   H         1 RES1   0.0000
    46 H15    107.2998 102.5560  80.6596   H         1 RES1   0.0000
    47 H16    105.8636 102.9512  79.6787   H         1 RES1   0.0000
    48 ****   107.2458 100.6135  82.0180   Du        1 RES1   0.0000
    49 ****   103.9897  98.1597  82.1770   Du        1 RES1   0.0000
    50 ****   103.7346 102.3527  79.0761   Du        1 RES1   0.0000
    51 ****   100.3213 100.0348  79.7984   Du        1 RES1   0.0000
    52 ****   100.5610  98.6896  78.9043   Du        1 RES1   0.0000
    53 ****    95.1406  98.9894  79.3093   Du        1 RES1   0.0000
    54 ****    95.2333 100.2607  78.1367   Du        1 RES1   0.0000
    55 ****    96.6915 100.3064  76.4152   Du        1 RES1   0.0000
    56 ****    96.2737  98.9353  75.6326   Du        1 RES1   0.0000
    57 ****    93.8631  98.9918  76.6347   Du        1 RES1   0.0000
    58 ****    93.0888  97.7131  77.5094   Du        1 RES1   0.0000
    59 ****    93.2698  95.6549  76.3335   Du        1 RES1   0.0000
    60 ****    94.5033  95.1248  77.2629   Du        1 RES1   0.0000
    61 ****    92.6572  97.3878  75.4218   Du        1 RES1   0.0000
    62 ****    92.3914  96.3410  74.0677   Du        1 RES1   0.0000
    63 ****    95.1786  97.0353  72.0515   Du        1 RES1   0.0000
    64 ****    93.7658  96.2381  72.2384   Du        1 RES1   0.0000
    65 ****    93.2246  99.0025  72.7143   Du        1 RES1   0.0000
    66 ****    94.8222  99.2980  72.8789   Du        1 RES1   0.0000
    67 ****    98.3742  98.5220  83.4703   Du        1 RES1   0.0000
    68 ****    99.6508  97.5038  83.4626   Du        1 RES1   0.0000
    69 ****   100.8102  96.7955  82.5028   Du        1 RES1   0.0000
    70 ****   101.6693  97.5864  83.6444   Du        1 RES1   0.0000
@<TRIPOS>BOND
     1     1     2   ar
     2     2     3   ar
     3     3     4   ar
     4     4     5   ar
     5     5     6   ar
     6     1     6   ar
     7     5     7   ar
     8     7     8   ar
     9     8     9   ar
    10     4     9   ar
    11     7    10    1
    12    10    11    1
    13    11    12    1
    14    12    13    1
    15    13    14    1
    16    10    14    1
    17    13    15    1
    18    15    16    1
    19    16    17    1
    20    17    18    2
    21    17    19    1
    22    17    20    1
    23    20    21    1
    24    21    22    2
    25    21    23    1
    26    21    24    1
    27    24    25    1
    28    25    26    2
    29    25    27    1
    30    25    28    1
    31    12    29    1
    32    11    30    1
    33     3    31    1
    34     1    32    1
    35     8    33    1
    36    10    34    1
    37    11    35    1
    38    12    36    1
    39    13    37    1
    40    15    38    1
    41    15    39    1
    42    19    40    1
    43    23    41    1
    44    27    42    1
    45    28    43    1
    46    29    44    1
    47    30    45    1
    48    31    46    1
    49    31    47    1
    50     2    48    1
    51     6    49    1
    52     9    50    1
    53    14    51    1
    54    14    52    1
    55    18    53    1
    56    18    54    1
    57    19    55    1
    58    19    56    1
    59    22    57    1
    60    22    58    1
    61    23    59    1
    62    23    60    1
    63    26    61    1
    64    26    62    1
    65    27    63    1
    66    27    64    1
    67    28    65    1
    68    28    66    1
    69    29    67    1
    70    29    68    1
    71    30    69    1
    72    30    70    1
@<TRIPOS>SUBSTRUCTURE
     1 RES1        1 GROUP             0 ****  ****    0  
@<TRIPOS>MOLECULE
ATP|ATP|mol2|1|dock18
    70    72     1     0     0
SMALL
NO_CHARGES
****
Generated from the CSD

@<TRIPOS>ATOM
     1 C       99.0734  93.4150  83.3136   C.ar      1 RES1   0.0000
     2 N       97.9154  92.8243  83.6884   N.ar      1 RES1   0.0000
     3 C       96.7246  93.4423  83.5408   C.ar      1 RES1   0.0000
     4 C       96.7370  94.7181  82.9840   C.ar      1 RES1   0.0000
     5 C       97.9386  95.2999  82.6115   C.ar      1 RES1   0.0000
     6 N       99.1048  94.6522  82.7734   N.ar      1 RES1   0.0000
     7 N       97.6380  96.5139  82.1193   N.ar      1 RES1   0.0000
     8 C       96.3025  96.6962  82.1674   C.ar      1 RES1   0.0000
     9 N       95.7497  95.5883  82.7033   N.ar      1 RES1   0.0000
    10 C       98.5325  97.4261  81.6461   C.3       1 RES1   0.0000
    11 C       99.2543  96.9339  80.3692   C.3       1 RES1   0.0000
    12 C       99.0141  98.0685  79.3531   C.3       1 RES1   0.0000
    13 C       98.6630  99.2573  80.2651   C.3       1 RES1   0.0000
    14 O       97.8446  98.6172  81.2464   O.3       1 RES1   0.0000
    15 C       97.8714 100.3547  79.5278   C.3       1 RES1   0.0000
    16 O       97.1288  99.7294  78.4783   O.3       1 RES1   0.0000
    17 P       96.8715 100.3639  77.0330   P.3       1 RES1   0.0000
    18 O       97.7361 101.5630  76.8462   O.2       1 RES1   0.0000
    19 O       97.2066  99.2834  75.9016   O.3       1 RES1   0.0000
    20 O       95.3291 100.7822  76.9377   O.3       1 RES1   0.0000
    21 P       95.1904 102.3340  76.5653   P.3       1 RES1   0.0000
    22 O       95.8145 102.5691  75.2330   O.2       1 RES1   0.0000
    23 O       95.9623 103.1983  77.6697   O.3       1 RES1   0.0000
    24 O       93.6407 102.7399  76.5197   O.3       1 RES1   0.0000
    25 P       93.2997 103.9424  77.5205   P.3       1 RES1   0.0000
    26 O       93.5794 103.5283  78.9242   O.2       1 RES1   0.0000
    27 O       91.7503 104.3186  77.3895   O.3       1 RES1   0.0000
    28 O       94.1868 105.2226  77.1544   O.3       1 RES1   0.0000
    29 O      100.1683  98.3377  78.5498   O.3       1 RES1   0.0000
    30 O      100.6582  96.7868  80.6151   O.3       1 RES1   0.0000
    31 N       95.5690  92.8528  83.9155   N.pl3     1 RES1   0.0000
    32 H1     100.0051  92.8784  83.4511   H         1 RES1   0.0000
    33 H2      95.7652  97.5776  81.8359   H         1 RES1   0.0000
    34 H3      99.2769  97.6943  82.4114   H         1 RES1   0.0000
    35 H4      98.8369  95.9879  79.9903   H         1 RES1   0.0000
    36 H5      98.1426  97.8184  78.7281   H         1 RES1   0.0000
    37 H6      99.5784  99.6598  80.7258   H         1 RES1   0.0000
    38 H7      98.5572 101.1130  79.1218   H         1 RES1   0.0000
    39 H8      97.1688 100.8298  80.2287   H         1 RES1   0.0000
    40 H9      98.1010  98.9804  76.0046   H         1 RES1   0.0000
    41 H10     96.5418 103.8216  77.2481   H         1 RES1   0.0000
    42 H11     91.5733 105.1092  77.8854   H         1 RES1   0.0000
    43 H12     94.7334 105.0261  76.4028   H         1 RES1   0.0000
    44 H13     99.9259  98.3852  77.6320   H         1 RES1   0.0000
    45 H14    101.0646  96.2717  79.9273   H         1 RES1   0.0000
    46 H15     95.5836  91.9082  84.3255   H         1 RES1   0.0000
    47 H16     94.6727  93.3459  83.7924   H         1 RES1   0.0000
    48 ****    97.9424  91.9066  84.0849   Du        1 RES1   0.0000
    49 ****    99.9700  95.0739  82.5021   Du        1 RES1   0.0000
    50 ****    94.7741  95.4393  82.8642   Du        1 RES1   0.0000
    51 ****    96.9544  98.3854  80.8542   Du        1 RES1   0.0000
    52 ****    97.7153  99.2205  82.0334   Du        1 RES1   0.0000
    53 ****    97.5758 102.3850  77.3927   Du        1 RES1   0.0000
    54 ****    98.4766 101.5458  76.1744   Du        1 RES1   0.0000
    55 ****    97.0988  99.7017  74.9997   Du        1 RES1   0.0000
    56 ****    96.5808  98.5080  75.9863   Du        1 RES1   0.0000
    57 ****    96.4489 103.3316  75.1056   Du        1 RES1   0.0000
    58 ****    95.5991 101.9645  74.4662   Du        1 RES1   0.0000
    59 ****    96.4996 102.5879  78.2517   Du        1 RES1   0.0000
    60 ****    95.2962 103.6914  78.2292   Du        1 RES1   0.0000
    61 ****    92.8725 103.6261  79.6247   Du        1 RES1   0.0000
    62 ****    94.4741 103.1526  79.1658   Du        1 RES1   0.0000
    63 ****    91.1938 103.5689  77.7477   Du        1 RES1   0.0000
    64 ****    91.5245 104.4710  76.4273   Du        1 RES1   0.0000
    65 ****    94.7659 105.4606  77.9342   Du        1 RES1   0.0000
    66 ****    93.5868 105.9927  76.9376   Du        1 RES1   0.0000
    67 ****   100.8375  97.6056  78.6772   Du        1 RES1   0.0000
    68 ****   100.5703  99.2092  78.8307   Du        1 RES1   0.0000
    69 ****   100.7921  96.3273  81.4931   Du        1 RES1   0.0000
    70 ****   101.0838  97.6913  80.6440   Du        1 RES1   0.0000
@<TRIPOS>BOND
     1     1     2   ar
     2     2     3   ar
     3     3     4   ar
     4     4     5   ar
     5     5     6   ar
     6     1     6   ar
     7     5     7   ar
     8     7     8   ar
     9     8     9   ar
    10     4     9   ar
    11     7    10    1
    12    10    11    1
    13    11    12    1
    14    12    13    1
    15    13    14    1
    16    10    14    1
    17    13    15    1
    18    15    16    1
    19    16    17    1
    20    17    18    2
    21    17    19    1
    22    17    20    1
    23    20    21    1
    24    21    22    2
    25    21    23    1
    26    21    24    1
    27    24    25    1
    28    25    26    2
    29    25    27    1
    30    25    28    1
    31    12    29    1
    32    11    30    1
    33     3    31    1
    34     1    32    1
    35     8    33    1
    36    10    34    1
    37    11    35    1
    38    12    36    1
    39    13    37    1
    40    15    38    1
    41    15    39    1
    42    19    40    1
    43    23    41    1
    44    27    42    1
    45    28    43    1
    46    29    44    1
    47    30    45    1
    48    31    46    1
    49    31    47    1
    50     2    48    1
    51     6    49    1
    52     9    50    1
    53    14    51    1
    54    14    52    1
    55    18    53    1
    56    18    54    1
    57    19    55    1
    58    19    56    1
    59    22    57    1
    60    22    58    1
    61    23    59    1
    62    23    60    1
    63    26    61    1
    64    26    62    1
    65    27    63    1
    66    27    64    1
    67    28    65    1
    68    28    66    1
    69    29    67    1
    70    29    68    1
    71    30    69    1
    72    30    70    1
@<TRIPOS>SUBSTRUCTURE
     1 RES1        1 GROUP             0 ****  ****    0  
@<TRIPOS>MOLECULE
ATP|ATP|mol2|1|dock19
    70    72     1     0     0
SMALL
NO_CHARGES
****
Generated from the CSD

@<TRIPOS>ATOM
     1 C      102.4222  96.6841  81.9594   C.ar      1 RES1   0.0000
     2 N      103.3479  97.6614  81.8232   N.ar      1 RES1   0.0000
     3 C      103.1178  98.7548  81.0660   C.ar      1 RES1   0.0000
     4 C      101.8830  98.8361  80.4285   C.ar      1 RES1   0.0000
     5 C      100.9545  97.8188  80.5838   C.ar      1 RES1   0.0000
     6 N      101.2201  96.7454  81.3474   N.ar      1 RES1   0.0000
     7 N       99.8797  98.1692  79.8569   N.ar      1 RES1   0.0000
     8 C      100.1082  99.3618  79.2699   C.ar      1 RES1   0.0000
     9 N      101.3451  99.7695  79.6221   N.ar      1 RES1   0.0000
    10 C       98.7356  97.4417  79.7240   C.3       1 RES1   0.0000
    11 C       98.0923  97.1030  81.0898   C.3       1 RES1   0.0000
    12 C       96.6452  97.6165  80.9497   C.3       1 RES1   0.0000
    13 C       96.4729  97.7006  79.4228   C.3       1 RES1   0.0000
    14 O       97.7479  98.2138  79.0312   O.3       1 RES1   0.0000
    15 C       95.3463  98.6661  79.0071   C.3       1 RES1   0.0000
    16 O       94.2170  97.8805  78.6178   O.3       1 RES1   0.0000
    17 P       94.0473  97.1570  77.2017   P.3       1 RES1   0.0000
    18 O       92.9454  97.8020  76.4335   O.2       1 RES1   0.0000
    19 O       95.4111  97.2669  76.3723   O.3       1 RES1   0.0000
    20 O       93.7005  95.6164  77.4654   O.3       1 RES1   0.0000
    21 P       92.3301  95.4816  78.2836   P.3       1 RES1   0.0000
    22 O       92.1966  94.0817  78.7759   O.2       1 RES1   0.0000
    23 O       91.1106  95.8142  77.3015   O.3       1 RES1   0.0000
    24 O       92.3422  96.4960  79.5242   O.3       1 RES1   0.0000
    25 P       90.8895  96.6767  80.1732   P.3       1 RES1   0.0000
    26 O       89.9110  97.0751  79.1226   O.2       1 RES1   0.0000
    27 O       90.9460  97.8206  81.2902   O.3       1 RES1   0.0000
    28 O       90.4204  95.3034  80.8469   O.3       1 RES1   0.0000
    29 O       95.6899  96.7310  81.5443   O.3       1 RES1   0.0000
    30 O       98.0901  95.6861  81.3024   O.3       1 RES1   0.0000
    31 N      104.0420  99.7297  80.9297   N.pl3     1 RES1   0.0000
    32 H1     102.6526  95.8252  82.5791   H         1 RES1   0.0000
    33 H2      99.4212  99.8997  78.6263   H         1 RES1   0.0000
    34 H3      98.9119  96.5139  79.1583   H         1 RES1   0.0000
    35 H4      98.5971  97.6090  81.9275   H         1 RES1   0.0000
    36 H5      96.5747  98.6273  81.3809   H         1 RES1   0.0000
    37 H6      96.3157  96.6933  79.0070   H         1 RES1   0.0000
    38 H7      95.6795  99.3075  78.1776   H         1 RES1   0.0000
    39 H8      95.0668  99.2916  79.8680   H         1 RES1   0.0000
    40 H9      95.2969  97.8723  75.6492   H         1 RES1   0.0000
    41 H10     91.4318  95.9467  76.4175   H         1 RES1   0.0000
    42 H11     91.3082  97.4627  82.0921   H         1 RES1   0.0000
    43 H12     90.6119  94.5804  80.2612   H         1 RES1   0.0000
    44 H13     95.7145  95.8842  81.1134   H         1 RES1   0.0000
    45 H14     97.3304  95.2889  80.8918   H         1 RES1   0.0000
    46 H15    104.9491  99.6484  81.4106   H         1 RES1   0.0000
    47 H16    103.8420 100.5546  80.3457   H         1 RES1   0.0000
    48 ****   104.2248  97.5714  82.2954   Du        1 RES1   0.0000
    49 ****   100.5475  96.0138  81.4590   Du        1 RES1   0.0000
    50 ****   101.7864 100.6193  79.3336   Du        1 RES1   0.0000
    51 ****    97.8239  99.1779  79.2857   Du        1 RES1   0.0000
    52 ****    97.8682  98.1195  78.0430   Du        1 RES1   0.0000
    53 ****    93.0919  98.0747  75.4826   Du        1 RES1   0.0000
    54 ****    92.0595  97.9621  76.8688   Du        1 RES1   0.0000
    55 ****    95.6573  96.3656  76.0160   Du        1 RES1   0.0000
    56 ****    96.1394  97.5986  76.9720   Du        1 RES1   0.0000
    57 ****    92.3767  93.3155  78.1590   Du        1 RES1   0.0000
    58 ****    91.9270  93.9083  79.7231   Du        1 RES1   0.0000
    59 ****    90.6505  96.6450  77.6145   Du        1 RES1   0.0000
    60 ****    90.4631  95.0521  77.3077   Du        1 RES1   0.0000
    61 ****    88.9393  96.8711  79.2411   Du        1 RES1   0.0000
    62 ****    90.2261  97.5465  78.2988   Du        1 RES1   0.0000
    63 ****    90.0224  98.1618  81.4649   Du        1 RES1   0.0000
    64 ****    91.5236  98.5713  80.9696   Du        1 RES1   0.0000
    65 ****    89.4366  95.3378  81.0230   Du        1 RES1   0.0000
    66 ****    90.9090  95.1716  81.7095   Du        1 RES1   0.0000
    67 ****    94.7744  97.1224  81.4517   Du        1 RES1   0.0000
    68 ****    95.9062  96.6147  82.5137   Du        1 RES1   0.0000
    69 ****    98.0676  95.5008  82.2849   Du        1 RES1   0.0000
    70 ****    98.9206  95.2928  80.9080   Du        1 RES1   0.0000
@<TRIPOS>BOND
     1     1     2   ar
     2     2     3   ar
     3     3     4   ar
     4     4     5   ar
     5     5     6   ar
     6     1     6   ar
     7     5     7   ar
     8     7     8   ar
     9     8     9   ar
    10     4     9   ar
    11     7    10    1
    12    10    11    1
    13    11    12    1
    14    12    13    1
    15    13    14    1
    16    10    14    1
    17    13    15    1
    18    15    16    1
    19    16    17    1
    20    17    18    2
    21    17    19    1
    22    17    20    1
    23    20    21    1
    24    21    22    2
    25    21    23    1
    26    21    24    1
    27    24    25    1
    28    25    26    2
    29    25    27    1
    30    25    28    1
    31    12    29    1
    32    11    30    1
    33     3    31    1
    34     1    32    1
    35     8    33    1
    36    10    34    1
    37    11    35    1
    38    12    36    1
    39    13    37    1
    40    15    38    1
    41    15    39    1
    42    19    40    1
    43    23    41    1
    44    27    42    1
    45    28    43    1
    46    29    44    1
    47    30    45    1
    48    31    46    1
    49    31    47    1
    50     2    48    1
    51     6    49    1
    52     9    50    1
    53    14    51    1
    54    14    52    1
    55    18    53    1
    56    18    54    1
    57    19    55    1
    58    19    56    1
    59    22    57    1
    60    22    58    1
    61    23    59    1
    62    23    60    1
    63    26    61    1
    64    26    62    1
    65    27    63    1
    66    27    64    1
    67    28    65    1
    68    28    66    1
    69    29    67    1
    70    29    68    1
    71    30    69    1
    72    30    70    1
@<TRIPOS>SUBSTRUCTURE
     1 RES1        1 GROUP             0 ****  ****    0  
@<TRIPOS>MOLECULE
ATP|ATP|mol2|1|dock25
    70    72     1     0     0
SMALL
NO_CHARGES
****
Generated from the CSD

@<TRIPOS>ATOM
     1 C      100.0044  93.9171  81.6345   C.ar      1 RES1   0.0000
     2 N      100.1683  93.3566  82.8550   N.ar      1 RES1   0.0000
     3 C      100.2690  94.1077  83.9718   C.ar      1 RES1   0.0000
     4 C      100.1965  95.4890  83.8156   C.ar      1 RES1   0.0000
     5 C      100.0309  96.0360  82.5529   C.ar      1 RES1   0.0000
     6 N       99.9336  95.2547  81.4638   N.ar      1 RES1   0.0000
     7 N      100.0028  97.3698  82.7157   N.ar      1 RES1   0.0000
     8 C      100.1360  97.6618  84.0257   C.ar      1 RES1   0.0000
     9 N      100.2577  96.5003  84.7013   N.ar      1 RES1   0.0000
    10 C       99.8648  98.2915  81.7220   C.3       1 RES1   0.0000
    11 C      101.0146  98.2190  80.6892   C.3       1 RES1   0.0000
    12 C      100.2846  98.0660  79.3396   C.3       1 RES1   0.0000
    13 C       98.8719  98.5788  79.6703   C.3       1 RES1   0.0000
    14 O       98.6755  98.0204  80.9712   O.3       1 RES1   0.0000
    15 C       97.8075  98.0553  78.6868   C.3       1 RES1   0.0000
    16 O       96.8525  99.0986  78.4783   O.3       1 RES1   0.0000
    17 P       97.0137 100.2928  77.4269   P.3       1 RES1   0.0000
    18 O       98.2891 101.0205  77.6800   O.2       1 RES1   0.0000
    19 O       97.0215  99.7047  75.9389   O.3       1 RES1   0.0000
    20 O       95.7722 101.2877  77.6056   O.3       1 RES1   0.0000
    21 P       95.9393 102.5694  76.6595   P.3       1 RES1   0.0000
    22 O       97.2209 102.4524  75.9088   O.2       1 RES1   0.0000
    23 O       95.9819 103.8818  77.5751   O.3       1 RES1   0.0000
    24 O       94.7115 102.6434  75.6322   O.3       1 RES1   0.0000
    25 P       94.8451 103.8737  74.6160   P.3       1 RES1   0.0000
    26 O       94.9261 105.1526  75.3763   O.2       1 RES1   0.0000
    27 O       93.5607 103.9169  73.6633   O.3       1 RES1   0.0000
    28 O       96.1605 103.6998  73.7217   O.3       1 RES1   0.0000
    29 O      100.8970  98.8315  78.2960   O.3       1 RES1   0.0000
    30 O      101.7724  99.4350  80.7003   O.3       1 RES1   0.0000
    31 N      100.4331  93.5481  85.1897   N.pl3     1 RES1   0.0000
    32 H1      99.9275  93.2723  80.7666   H         1 RES1   0.0000
    33 H2     100.1456  98.6544  84.4617   H         1 RES1   0.0000
    34 H3      99.7956  99.3128  82.1269   H         1 RES1   0.0000
    35 H4     101.6798  97.3587  80.8626   H         1 RES1   0.0000
    36 H5     100.2323  96.9988  79.0735   H         1 RES1   0.0000
    37 H6      98.8733  99.6788  79.7164   H         1 RES1   0.0000
    38 H7      97.3204  97.1566  79.0937   H         1 RES1   0.0000
    39 H8      98.2870  97.8127  77.7267   H         1 RES1   0.0000
    40 H9      97.5896  98.9444  75.8992   H         1 RES1   0.0000
    41 H10     96.3650 103.6767  78.4197   H         1 RES1   0.0000
    42 H11     93.6042 103.2011  73.0403   H         1 RES1   0.0000
    43 H12     96.1952 104.3900  73.0700   H         1 RES1   0.0000
    44 H13    100.4767  98.6471  77.4636   H         1 RES1   0.0000
    45 H14    101.5487  99.9598  81.4606   H         1 RES1   0.0000
    46 H15    100.4842  92.5236  85.2816   H         1 RES1   0.0000
    47 H16    100.5076  94.1437  86.0272   H         1 RES1   0.0000
    48 ****   100.2159  92.3606  82.9315   Du        1 RES1   0.0000
    49 ****    99.8124  95.6521  80.5542   Du        1 RES1   0.0000
    50 ****   100.3735  96.4070  85.6902   Du        1 RES1   0.0000
    51 ****    98.5285  97.0336  80.9036   Du        1 RES1   0.0000
    52 ****    97.8854  98.4457  81.4126   Du        1 RES1   0.0000
    53 ****    98.6722 101.0516  78.6032   Du        1 RES1   0.0000
    54 ****    98.7618 101.4777  76.9268   Du        1 RES1   0.0000
    55 ****    97.3563 100.4035  75.3067   Du        1 RES1   0.0000
    56 ****    96.0924  99.4395  75.6810   Du        1 RES1   0.0000
    57 ****    97.7630 101.6145  75.9725   Du        1 RES1   0.0000
    58 ****    97.5390 103.2118  75.3412   Du        1 RES1   0.0000
    59 ****    95.0514 104.2232  77.7078   Du        1 RES1   0.0000
    60 ****    96.5330 104.5831  77.1231   Du        1 RES1   0.0000
    61 ****    95.2534 105.1526  76.3212   Du        1 RES1   0.0000
    62 ****    94.6533 106.0108  74.9416   Du        1 RES1   0.0000
    63 ****    93.5403 104.7868  73.1705   Du        1 RES1   0.0000
    64 ****    92.7323 103.8276  74.2163   Du        1 RES1   0.0000
    65 ****    96.1370 102.8108  73.2643   Du        1 RES1   0.0000
    66 ****    96.9701 103.7526  74.3063   Du        1 RES1   0.0000
    67 ****   101.8663  98.5928  78.2366   Du        1 RES1   0.0000
    68 ****   100.8056  99.8054  78.5035   Du        1 RES1   0.0000
    69 ****   101.5714  99.9555  79.8704   Du        1 RES1   0.0000
    70 ****   102.7475  99.2148  80.7277   Du        1 RES1   0.0000
@<TRIPOS>BOND
     1     1     2   ar
     2     2     3   ar
     3     3     4   ar
     4     4     5   ar
     5     5     6   ar
     6     1     6   ar
     7     5     7   ar
     8     7     8   ar
     9     8     9   ar
    10     4     9   ar
    11     7    10    1
    12    10    11    1
    13    11    12    1
    14    12    13    1
    15    13    14    1
    16    10    14    1
    17    13    15    1
    18    15    16    1
    19    16    17    1
    20    17    18    2
    21    17    19    1
    22    17    20    1
    23    20    21    1
    24    21    22    2
    25    21    23    1
    26    21    24    1
    27    24    25    1
    28    25    26    2
    29    25    27    1
    30    25    28    1
    31    12    29    1
    32    11    30    1
    33     3    31    1
    34     1    32    1
    35     8    33    1
    36    10    34    1
    37    11    35    1
    38    12    36    1
    39    13    37    1
    40    15    38    1
    41    15    39    1
    42    19    40    1
    43    23    41    1
    44    27    42    1
    45    28    43    1
    46    29    44    1
    47    30    45    1
    48    31    46    1
    49    31    47    1
    50     2    48    1
    51     6    49    1
    52     9    50    1
    53    14    51    1
    54    14    52    1
    55    18    53    1
    56    18    54    1
    57    19    55    1
    58    19    56    1
    59    22    57    1
    60    22    58    1
    61    23    59    1
    62    23    60    1
    63    26    61    1
    64    26    62    1
    65    27    63    1
    66    27    64    1
    67    28    65    1
    68    28    66    1
    69    29    67    1
    70    29    68    1
    71    30    69    1
    72    30    70    1
@<TRIPOS>SUBSTRUCTURE
     1 RES1        1 GROUP             0 ****  ****    0  
@<TRIPOS>MOLECULE
ATP|ATP|mol2|1|dock23
    70    72     1     0     0
SMALL
NO_CHARGES
****
Generated from the CSD

@<TRIPOS>ATOM
     1 C      101.4990 100.0906  77.4023   C.ar      1 RES1   0.0000
     2 N      102.5200 100.9723  77.5056   N.ar      1 RES1   0.0000
     3 C      103.0223 101.3375  78.7040   C.ar      1 RES1   0.0000
     4 C      102.4443 100.7665  79.8343   C.ar      1 RES1   0.0000
     5 C      101.3978  99.8679  79.6988   C.ar      1 RES1   0.0000
     6 N      100.9252  99.5281  78.4876   N.ar      1 RES1   0.0000
     7 N      101.0498  99.4973  80.9430   N.ar      1 RES1   0.0000
     8 C      101.8447 100.1249  81.8337   C.ar      1 RES1   0.0000
     9 N      102.7020 100.9087  81.1474   N.ar      1 RES1   0.0000
    10 C      100.0519  98.6279  81.2661   C.3       1 RES1   0.0000
    11 C       98.8889  99.3203  82.0157   C.3       1 RES1   0.0000
    12 C       97.6444  98.9443  81.1865   C.3       1 RES1   0.0000
    13 C       98.1294  97.7085  80.4082   C.3       1 RES1   0.0000
    14 O       99.4614  98.1022  80.0718   O.3       1 RES1   0.0000
    15 C       97.3007  97.4485  79.1354   C.3       1 RES1   0.0000
    16 O       96.8425  98.7109  78.6452   O.3       1 RES1   0.0000
    17 P       96.0678  98.9319  77.2636   P.3       1 RES1   0.0000
    18 O       95.7995 100.3836  77.0612   O.2       1 RES1   0.0000
    19 O       96.9556  98.3797  76.0525   O.3       1 RES1   0.0000
    20 O       94.6866  98.1251  77.3298   O.3       1 RES1   0.0000
    21 P       93.8758  98.2867  75.9579   P.3       1 RES1   0.0000
    22 O       93.8480  99.7275  75.5795   O.2       1 RES1   0.0000
    23 O       92.3771  97.7712  76.1832   O.3       1 RES1   0.0000
    24 O       94.5932  97.4350  74.8054   O.3       1 RES1   0.0000
    25 P       93.8290  97.5491  73.4029   P.3       1 RES1   0.0000
    26 O       92.4371  97.0355  73.5409   O.2       1 RES1   0.0000
    27 O       94.5986  96.6742  72.3067   O.3       1 RES1   0.0000
    28 O       93.7902  99.0764  72.9276   O.3       1 RES1   0.0000
    29 O       96.5100  98.6441  82.0070   O.3       1 RES1   0.0000
    30 O       98.7687  98.7956  83.3435   O.3       1 RES1   0.0000
    31 N      104.0408 102.2179  78.8069   N.pl3     1 RES1   0.0000
    32 H1     101.1300  99.8274  76.4177   H         1 RES1   0.0000
    33 H2     101.8032 100.0209  82.9121   H         1 RES1   0.0000
    34 H3     100.4299  97.7865  81.8670   H         1 RES1   0.0000
    35 H4      99.0065 100.4146  82.0521   H         1 RES1   0.0000
    36 H5      97.4205  99.7569  80.4780   H         1 RES1   0.0000
    37 H6      98.1402  96.8287  81.0701   H         1 RES1   0.0000
    38 H7      96.4515  96.7865  79.3610   H         1 RES1   0.0000
    39 H8      97.9413  96.9804  78.3732   H         1 RES1   0.0000
    40 H9      97.8675  98.3429  76.3162   H         1 RES1   0.0000
    41 H10     92.0366  97.3996  75.3781   H         1 RES1   0.0000
    42 H11     94.0500  96.5765  71.5374   H         1 RES1   0.0000
    43 H12     93.3213  99.1411  72.1041   H         1 RES1   0.0000
    44 H13     96.7344  98.7403  82.9256   H         1 RES1   0.0000
    45 H14     97.9173  99.0071  83.7094   H         1 RES1   0.0000
    46 H15    104.4531 102.6280  77.9569   H         1 RES1   0.0000
    47 H16    104.4063 102.4806  79.7337   H         1 RES1   0.0000
    48 ****   102.9123 101.3634  76.6731   Du        1 RES1   0.0000
    49 ****   100.1712  98.8782  78.3928   Du        1 RES1   0.0000
    50 ****   103.4075 101.4946  81.5460   Du        1 RES1   0.0000
    51 ****    99.4435  98.8035  79.3592   Du        1 RES1   0.0000
    52 ****    99.9827  97.3122  79.7490   Du        1 RES1   0.0000
    53 ****    94.8754 100.6951  76.8399   Du        1 RES1   0.0000
    54 ****    96.5435 101.0463  77.1466   Du        1 RES1   0.0000
    55 ****    96.8612  98.9897  75.2657   Du        1 RES1   0.0000
    56 ****    96.6442  97.4629  75.8027   Du        1 RES1   0.0000
    57 ****    94.5274 100.0901  74.9416   Du        1 RES1   0.0000
    58 ****    93.1501 100.3319  75.9636   Du        1 RES1   0.0000
    59 ****    91.8012  98.5395  76.4627   Du        1 RES1   0.0000
    60 ****    92.3713  97.0727  76.8987   Du        1 RES1   0.0000
    61 ****    91.6676  97.6740  73.5538   Du        1 RES1   0.0000
    62 ****    92.2725  96.0524  73.6207   Du        1 RES1   0.0000
    63 ****    94.8054  95.7721  72.6853   Du        1 RES1   0.0000
    64 ****    95.4504  97.1324  72.0526   Du        1 RES1   0.0000
    65 ****    94.7246  99.4111  72.8060   Du        1 RES1   0.0000
    66 ****    93.3257  99.6288  73.6197   Du        1 RES1   0.0000
    67 ****    96.2178  97.7033  81.8351   Du        1 RES1   0.0000
    68 ****    95.7643  99.2712  81.7818   Du        1 RES1   0.0000
    69 ****    99.4826  99.1928  83.9202   Du        1 RES1   0.0000
    70 ****    98.8772  97.8018  83.3158   Du        1 RES1   0.0000
@<TRIPOS>BOND
     1     1     2   ar
     2     2     3   ar
     3     3     4   ar
     4     4     5   ar
     5     5     6   ar
     6     1     6   ar
     7     5     7   ar
     8     7     8   ar
     9     8     9   ar
    10     4     9   ar
    11     7    10    1
    12    10    11    1
    13    11    12    1
    14    12    13    1
    15    13    14    1
    16    10    14    1
    17    13    15    1
    18    15    16    1
    19    16    17    1
    20    17    18    2
    21    17    19    1
    22    17    20    1
    23    20    21    1
    24    21    22    2
    25    21    23    1
    26    21    24    1
    27    24    25    1
    28    25    26    2
    29    25    27    1
    30    25    28    1
    31    12    29    1
    32    11    30    1
    33     3    31    1
    34     1    32    1
    35     8    33    1
    36    10    34    1
    37    11    35    1
    38    12    36    1
    39    13    37    1
    40    15    38    1
    41    15    39    1
    42    19    40    1
    43    23    41    1
    44    27    42    1
    45    28    43    1
    46    29    44    1
    47    30    45    1
    48    31    46    1
    49    31    47    1
    50     2    48    1
    51     6    49    1
    52     9    50    1
    53    14    51    1
    54    14    52    1
    55    18    53    1
    56    18    54    1
    57    19    55    1
    58    19    56    1
    59    22    57    1
    60    22    58    1
    61    23    59    1
    62    23    60    1
    63    26    61    1
    64    26    62    1
    65    27    63    1
    66    27    64    1
    67    28    65    1
    68    28    66    1
    69    29    67    1
    70    29    68    1
    71    30    69    1
    72    30    70    1
@<TRIPOS>SUBSTRUCTURE
     1 RES1        1 GROUP             0 ****  ****    0  
@<TRIPOS>MOLECULE
ATP|ATP|mol2|1|dock5
    70    72     1     0     0
SMALL
NO_CHARGES
****
Generated from the CSD

@<TRIPOS>ATOM
     1 C      102.9039 100.8843  81.6378   C.ar      1 RES1   0.0000
     2 N      103.8117 101.6563  80.9971   N.ar      1 RES1   0.0000
     3 C      103.8569 101.7270  79.6500   C.ar      1 RES1   0.0000
     4 C      102.9265 100.9697  78.9438   C.ar      1 RES1   0.0000
     5 C      102.0096 100.1857  79.6263   C.ar      1 RES1   0.0000
     6 N      101.9952 100.1420  80.9693   N.ar      1 RES1   0.0000
     7 N      101.2588  99.5767  78.6926   N.ar      1 RES1   0.0000
     8 C      101.6722  99.9614  77.4677   C.ar      1 RES1   0.0000
     9 N      102.7022 100.8184  77.6256   N.ar      1 RES1   0.0000
    10 C      100.2402  98.7046  78.9330   C.3       1 RES1   0.0000
    11 C      100.2314  98.1998  80.3955   C.3       1 RES1   0.0000
    12 C       98.8017  98.5120  80.8814   C.3       1 RES1   0.0000
    13 C       98.0301  98.6599  79.5583   C.3       1 RES1   0.0000
    14 O       98.9828  99.3693  78.7635   O.3       1 RES1   0.0000
    15 C       96.7353  99.4801  79.7172   C.3       1 RES1   0.0000
    16 O       95.9615  99.3128  78.5268   O.3       1 RES1   0.0000
    17 P       95.0204  98.0583  78.2134   P.3       1 RES1   0.0000
    18 O       95.5129  97.3475  77.0000   O.2       1 RES1   0.0000
    19 O       95.0266  97.0542  79.4591   O.3       1 RES1   0.0000
    20 O       93.5337  98.5980  77.9647   O.3       1 RES1   0.0000
    21 P       92.5537  97.3889  77.5860   P.3       1 RES1   0.0000
    22 O       92.8856  96.9088  76.2151   O.2       1 RES1   0.0000
    23 O       91.0453  97.9245  77.6069   O.3       1 RES1   0.0000
    24 O       92.7386  96.1961  78.6401   O.3       1 RES1   0.0000
    25 P       92.0163  94.8488  78.1634   P.3       1 RES1   0.0000
    26 O       92.5479  94.4313  76.8355   O.2       1 RES1   0.0000
    27 O       90.4428  95.1075  78.0344   O.3       1 RES1   0.0000
    28 O       92.2746  93.6861  79.2317   O.3       1 RES1   0.0000
    29 O       98.2607  97.4678  81.6983   O.3       1 RES1   0.0000
    30 O      100.4643  96.7866  80.4368   O.3       1 RES1   0.0000
    31 N      104.7633 102.4971  79.0108   N.pl3     1 RES1   0.0000
    32 H1     102.9061 100.8607  82.7215   H         1 RES1   0.0000
    33 H2     101.2534  99.6389  76.5211   H         1 RES1   0.0000
    34 H3     100.2752  97.8454  78.2457   H         1 RES1   0.0000
    35 H4     100.9701  98.7220  81.0234   H         1 RES1   0.0000
    36 H5      98.8010  99.4759  81.4139   H         1 RES1   0.0000
    37 H6      97.8289  97.6665  79.1283   H         1 RES1   0.0000
    38 H7      96.9732 100.5416  79.8816   H         1 RES1   0.0000
    39 H8      96.1623  99.0934  80.5732   H         1 RES1   0.0000
    40 H9      95.4778  96.2529  79.2208   H         1 RES1   0.0000
    41 H10     90.9096  98.4847  78.3617   H         1 RES1   0.0000
    42 H11     90.1175  95.4894  78.8410   H         1 RES1   0.0000
    43 H12     92.2845  94.0552  80.1070   H         1 RES1   0.0000
    44 H13     97.8970  96.7795  81.1530   H         1 RES1   0.0000
    45 H14    100.5608  96.4391  79.5573   H         1 RES1   0.0000
    46 H15    105.4424 103.0490  79.5538   H         1 RES1   0.0000
    47 H16    104.7772 102.5337  77.9812   H         1 RES1   0.0000
    48 ****   104.4657 102.1880  81.5353   Du        1 RES1   0.0000
    49 ****   101.3314  99.5768  81.4591   Du        1 RES1   0.0000
    50 ****   103.2114 101.2645  76.8896   Du        1 RES1   0.0000
    51 ****    99.0505 100.3179  79.0724   Du        1 RES1   0.0000
    52 ****    98.7105  99.3506  77.8015   Du        1 RES1   0.0000
    53 ****    94.8622  96.9213  76.3716   Du        1 RES1   0.0000
    54 ****    96.4942  97.2968  76.8141   Du        1 RES1   0.0000
    55 ****    94.0848  96.8409  79.7191   Du        1 RES1   0.0000
    56 ****    95.4962  97.4837  80.2304   Du        1 RES1   0.0000
    57 ****    93.6755  96.3127  76.0717   Du        1 RES1   0.0000
    58 ****    92.3183  97.1828  75.4384   Du        1 RES1   0.0000
    59 ****    90.4185  97.1468  77.6548   Du        1 RES1   0.0000
    60 ****    90.8672  98.4451  76.7719   Du        1 RES1   0.0000
    61 ****    91.9443  94.4135  76.0384   Du        1 RES1   0.0000
    62 ****    93.5082  94.1689  76.7414   Du        1 RES1   0.0000
    63 ****    89.9753  94.2400  77.8640   Du        1 RES1   0.0000
    64 ****    90.2692  95.7344  77.2749   Du        1 RES1   0.0000
    65 ****    93.1551  93.2508  79.0439   Du        1 RES1   0.0000
    66 ****    91.5453  93.0051  79.1657   Du        1 RES1   0.0000
    67 ****    97.5397  97.8438  82.2803   Du        1 RES1   0.0000
    68 ****    98.9866  97.0868  82.2709   Du        1 RES1   0.0000
    69 ****    99.6906  96.3385  80.8847   Du        1 RES1   0.0000
    70 ****   101.3000  96.6058  80.9555   Du        1 RES1   0.0000
@<TRIPOS>BOND
     1     1     2   ar
     2     2     3   ar
     3     3     4   ar
     4     4     5   ar
     5     5     6   ar
     6     1     6   ar
     7     5     7   ar
     8     7     8   ar
     9     8     9   ar
    10     4     9   ar
    11     7    10    1
    12    10    11    1
    13    11    12    1
    14    12    13    1
    15    13    14    1
    16    10    14    1
    17    13    15    1
    18    15    16    1
    19    16    17    1
    20    17    18    2
    21    17    19    1
    22    17    20    1
    23    20    21    1
    24    21    22    2
    25    21    23    1
    26    21    24    1
    27    24    25    1
    28    25    26    2
    29    25    27    1
    30    25    28    1
    31    12    29    1
    32    11    30    1
    33     3    31    1
    34     1    32    1
    35     8    33    1
    36    10    34    1
    37    11    35    1
    38    12    36    1
    39    13    37    1
    40    15    38    1
    41    15    39    1
    42    19    40    1
    43    23    41    1
    44    27    42    1
    45    28    43    1
    46    29    44    1
    47    30    45    1
    48    31    46    1
    49    31    47    1
    50     2    48    1
    51     6    49    1
    52     9    50    1
    53    14    51    1
    54    14    52    1
    55    18    53    1
    56    18    54    1
    57    19    55    1
    58    19    56    1
    59    22    57    1
    60    22    58    1
    61    23    59    1
    62    23    60    1
    63    26    61    1
    64    26    62    1
    65    27    63    1
    66    27    64    1
    67    28    65    1
    68    28    66    1
    69    29    67    1
    70    29    68    1
    71    30    69    1
    72    30    70    1
@<TRIPOS>SUBSTRUCTURE
     1 RES1        1 GROUP             0 ****  ****    0  
@<TRIPOS>MOLECULE
ATP|ATP|mol2|1|dock22
    70    72     1     0     0
SMALL
NO_CHARGES
****
Generated from the CSD

@<TRIPOS>ATOM
     1 C      104.0455 102.2401  79.6922   C.ar      1 RES1   0.0000
     2 N      105.3303 102.1437  80.1051   N.ar      1 RES1   0.0000
     3 C      105.7587 101.1036  80.8511   C.ar      1 RES1   0.0000
     4 C      104.8199 100.1296  81.1793   C.ar      1 RES1   0.0000
     5 C      103.5098 100.2554  80.7447   C.ar      1 RES1   0.0000
     6 N      103.1211 101.3058  80.0022   N.ar      1 RES1   0.0000
     7 N      102.8477  99.1841  81.2143   N.ar      1 RES1   0.0000
     8 C      103.6993  98.4040  81.9109   C.ar      1 RES1   0.0000
     9 N      104.9140  98.9906  81.8897   N.ar      1 RES1   0.0000
    10 C      101.5249  98.9187  81.0253   C.3       1 RES1   0.0000
    11 C      100.6124  99.8889  81.8127   C.3       1 RES1   0.0000
    12 C       99.6686 100.4589  80.7347   C.3       1 RES1   0.0000
    13 C       99.7826  99.4129  79.6119   C.3       1 RES1   0.0000
    14 O      101.1813  99.1219  79.6498   O.3       1 RES1   0.0000
    15 C       99.3809  99.9767  78.2353   C.3       1 RES1   0.0000
    16 O       98.0186 100.4025  78.3166   O.3       1 RES1   0.0000
    17 P       97.1347 100.8906  77.0764   P.3       1 RES1   0.0000
    18 O       97.7728 102.0751  76.4359   O.2       1 RES1   0.0000
    19 O       97.0080  99.7088  76.0053   O.3       1 RES1   0.0000
    20 O       95.6808 101.2812  77.6212   O.3       1 RES1   0.0000
    21 P       94.7639 101.8321  76.4288   P.3       1 RES1   0.0000
    22 O       94.5070 100.7251  75.4654   O.2       1 RES1   0.0000
    23 O       95.5471 103.0112  75.6813   O.3       1 RES1   0.0000
    24 O       93.3760 102.3705  77.0221   O.3       1 RES1   0.0000
    25 P       93.5496 103.0204  78.4752   P.3       1 RES1   0.0000
    26 O       92.2492 103.5813  78.9383   O.2       1 RES1   0.0000
    27 O       94.6275 104.2004  78.4033   O.3       1 RES1   0.0000
    28 O       94.0513 101.9092  79.5113   O.3       1 RES1   0.0000
    29 O       98.3216 100.5928  81.2015   O.3       1 RES1   0.0000
    30 O       99.8554  99.1738  82.7969   O.3       1 RES1   0.0000
    31 N      107.0408 101.0080  81.2636   N.pl3     1 RES1   0.0000
    32 H1     103.7489 103.0938  79.0938   H         1 RES1   0.0000
    33 H2     103.4532  97.4701  82.4037   H         1 RES1   0.0000
    34 H3     101.2801  97.8800  81.2955   H         1 RES1   0.0000
    35 H4     101.1798 100.7022  82.2914   H         1 RES1   0.0000
    36 H5     100.0645 101.4223  80.3774   H         1 RES1   0.0000
    37 H6      99.1933  98.5195  79.8702   H         1 RES1   0.0000
    38 H7      99.5035  99.2087  77.4572   H         1 RES1   0.0000
    39 H8     100.0134 100.8456  77.9992   H         1 RES1   0.0000
    40 H9      97.8002  99.1847  76.0132   H         1 RES1   0.0000
    41 H10     96.4115 102.7145  75.4226   H         1 RES1   0.0000
    42 H11     95.4639 103.8854  78.7251   H         1 RES1   0.0000
    43 H12     93.4873 101.1468  79.4575   H         1 RES1   0.0000
    44 H13     97.8836 101.3002  80.7422   H         1 RES1   0.0000
    45 H14    100.0178  99.5280  83.6639   H         1 RES1   0.0000
    46 H15    107.7183 101.7406  81.0091   H         1 RES1   0.0000
    47 H16    107.3429 100.2038  81.8326   H         1 RES1   0.0000
    48 ****   105.9790 102.8612  79.8512   Du        1 RES1   0.0000
    49 ****   102.1755 101.3930  79.6886   Du        1 RES1   0.0000
    50 ****   105.7421  98.6394  82.3269   Du        1 RES1   0.0000
    51 ****   101.7026  99.8883  79.2744   Du        1 RES1   0.0000
    52 ****   101.3755  98.2958  79.1208   Du        1 RES1   0.0000
    53 ****    97.3738 102.4721  75.6094   Du        1 RES1   0.0000
    54 ****    98.6001 102.4729  76.8326   Du        1 RES1   0.0000
    55 ****    96.8759 100.0985  75.0939   Du        1 RES1   0.0000
    56 ****    96.2250  99.1317  76.2377   Du        1 RES1   0.0000
    57 ****    93.5888 100.5890  75.0934   Du        1 RES1   0.0000
    58 ****    95.2528 100.1182  75.1906   Du        1 RES1   0.0000
    59 ****    95.6364 103.7928  76.2987   Du        1 RES1   0.0000
    60 ****    95.0342 103.2858  74.8680   Du        1 RES1   0.0000
    61 ****    92.0662 103.6776  79.9166   Du        1 RES1   0.0000
    62 ****    91.5593 103.8613  78.2706   Du        1 RES1   0.0000
    63 ****    94.3206 104.9670  78.9675   Du        1 RES1   0.0000
    64 ****    94.7275 104.5032  77.4555   Du        1 RES1   0.0000
    65 ****    94.0210 102.2811  80.4391   Du        1 RES1   0.0000
    66 ****    94.9898 101.6456  79.2884   Du        1 RES1   0.0000
    67 ****    98.3298 100.7906  82.1817   Du        1 RES1   0.0000
    68 ****    97.8289  99.7380  81.0382   Du        1 RES1   0.0000
    69 ****   100.1213  98.2100  82.7801   Du        1 RES1   0.0000
    70 ****    98.8814  99.2546  82.5855   Du        1 RES1   0.0000
@<TRIPOS>BOND
     1     1     2   ar
     2     2     3   ar
     3     3     4   ar
     4     4     5   ar
     5     5     6   ar
     6     1     6   ar
     7     5     7   ar
     8     7     8   ar
     9     8     9   ar
    10     4     9   ar
    11     7    10    1
    12    10    11    1
    13    11    12    1
    14    12    13    1
    15    13    14    1
    16    10    14    1
    17    13    15    1
    18    15    16    1
    19    16    17    1
    20    17    18    2
    21    17    19    1
    22    17    20    1
    23    20    21    1
    24    21    22    2
    25    21    23    1
    26    21    24    1
    27    24    25    1
    28    25    26    2
    29    25    27    1
    30    25    28    1
    31    12    29    1
    32    11    30    1
    33     3    31    1
    34     1    32    1
    35     8    33    1
    36    10    34    1
    37    11    35    1
    38    12    36    1
    39    13    37    1
    40    15    38    1
    41    15    39    1
    42    19    40    1
    43    23    41    1
    44    27    42    1
    45    28    43    1
    46    29    44    1
    47    30    45    1
    48    31    46    1
    49    31    47    1
    50     2    48    1
    51     6    49    1
    52     9    50    1
    53    14    51    1
    54    14    52    1
    55    18    53    1
    56    18    54    1
    57    19    55    1
    58    19    56    1
    59    22    57    1
    60    22    58    1
    61    23    59    1
    62    23    60    1
    63    26    61    1
    64    26    62    1
    65    27    63    1
    66    27    64    1
    67    28    65    1
    68    28    66    1
    69    29    67    1
    70    29    68    1
    71    30    69    1
    72    30    70    1
@<TRIPOS>SUBSTRUCTURE
     1 RES1        1 GROUP             0 ****  ****    0  
@<TRIPOS>MOLECULE
ATP|ATP|mol2|1|dock6
    70    72     1     0     0
SMALL
NO_CHARGES
****
Generated from the CSD

@<TRIPOS>ATOM
     1 C      101.7216 101.6479  76.7719   C.ar      1 RES1   0.0000
     2 N      102.7863 102.2498  77.3507   N.ar      1 RES1   0.0000
     3 C      103.0460 102.1158  78.6684   C.ar      1 RES1   0.0000
     4 C      102.1698 101.3290  79.4106   C.ar      1 RES1   0.0000
     5 C      101.0857 100.7264  78.7919   C.ar      1 RES1   0.0000
     6 N      100.8605 100.8826  77.4763   N.ar      1 RES1   0.0000
     7 N      100.4293 100.0479  79.7485   N.ar      1 RES1   0.0000
     8 C      101.0706 100.2031  80.9248   C.ar      1 RES1   0.0000
     9 N      102.1420 100.9955  80.7140   N.ar      1 RES1   0.0000
    10 C       99.2932  99.3173  79.5707   C.3       1 RES1   0.0000
    11 C       99.5286  97.8031  79.7844   C.3       1 RES1   0.0000
    12 C       98.4697  97.4134  80.8354   C.3       1 RES1   0.0000
    13 C       97.4517  98.5613  80.7173   C.3       1 RES1   0.0000
    14 O       98.3219  99.6837  80.5575   O.3       1 RES1   0.0000
    15 C       96.5878  98.7182  81.9836   C.3       1 RES1   0.0000
    16 O       95.3977  97.9474  81.8006   O.3       1 RES1   0.0000
    17 P       94.2926  98.2193  80.6771   P.3       1 RES1   0.0000
    18 O       94.6032  99.4874  79.9590   O.2       1 RES1   0.0000
    19 O       94.2735  97.0065  79.6337   O.3       1 RES1   0.0000
    20 O       92.8663  98.3335  81.3955   O.3       1 RES1   0.0000
    21 P       92.1490  99.7110  81.0034   P.3       1 RES1   0.0000
    22 O       91.9048  99.7277  79.5337   O.2       1 RES1   0.0000
    23 O       93.1192 100.9238  81.3910   O.3       1 RES1   0.0000
    24 O       90.7571  99.8351  81.7879   O.3       1 RES1   0.0000
    25 P       89.9335 101.1393  81.3581   P.3       1 RES1   0.0000
    26 O       88.6508 101.2005  82.1136   O.2       1 RES1   0.0000
    27 O       89.6110 101.0711  79.7926   O.3       1 RES1   0.0000
    28 O       90.7962 102.4519  81.6629   O.3       1 RES1   0.0000
    29 O       97.8705  96.1417  80.5635   O.3       1 RES1   0.0000
    30 O       99.2960  97.0853  78.5663   O.3       1 RES1   0.0000
    31 N      104.1082 102.7170  79.2459   N.pl3     1 RES1   0.0000
    32 H1     101.5548 101.7843  75.7096   H         1 RES1   0.0000
    33 H2     100.7778  99.7699  81.8746   H         1 RES1   0.0000
    34 H3      98.8576  99.4866  78.5740   H         1 RES1   0.0000
    35 H4     100.5396  97.5856  80.1628   H         1 RES1   0.0000
    36 H5      98.9271  97.4329  81.8369   H         1 RES1   0.0000
    37 H6      96.8305  98.4210  79.8192   H         1 RES1   0.0000
    38 H7      96.3440  99.7778  82.1509   H         1 RES1   0.0000
    39 H8      97.1385  98.3247  82.8510   H         1 RES1   0.0000
    40 H9      94.9679  96.3934  79.8443   H         1 RES1   0.0000
    41 H10     93.1262 101.5698  80.6947   H         1 RES1   0.0000
    42 H11     90.3375 101.4385  79.3032   H         1 RES1   0.0000
    43 H12     91.6467 102.3770  81.2465   H         1 RES1   0.0000
    44 H13     96.9929  96.2593  80.2180   H         1 RES1   0.0000
    45 H14    100.0863  96.6362  78.2883   H         1 RES1   0.0000
    46 H15    104.7433 103.2948  78.6773   H         1 RES1   0.0000
    47 H16    104.2846 102.5992  80.2542   H         1 RES1   0.0000
    48 ****   103.3961 102.8079  76.7880   Du        1 RES1   0.0000
    49 ****   100.0785 100.4452  77.0323   Du        1 RES1   0.0000
    50 ****   102.8020 101.2852  81.4072   Du        1 RES1   0.0000
    51 ****    98.7743  99.8946  81.4241   Du        1 RES1   0.0000
    52 ****    97.8026 100.4809  80.2500   Du        1 RES1   0.0000
    53 ****    95.2163 100.1597  80.3739   Du        1 RES1   0.0000
    54 ****    94.1984  99.6663  79.0622   Du        1 RES1   0.0000
    55 ****    94.4119  97.3610  78.7089   Du        1 RES1   0.0000
    56 ****    93.3908  96.5392  79.6828   Du        1 RES1   0.0000
    57 ****    91.4408  98.9580  79.0952   Du        1 RES1   0.0000
    58 ****    92.2049 100.5086  78.9858   Du        1 RES1   0.0000
    59 ****    94.0463 100.5752  81.5286   Du        1 RES1   0.0000
    60 ****    92.7948 101.3505  82.2352   Du        1 RES1   0.0000
    61 ****    88.1892 100.3558  82.3844   Du        1 RES1   0.0000
    62 ****    88.2514 102.0863  82.3499   Du        1 RES1   0.0000
    63 ****    88.7809 101.5945  79.6002   Du        1 RES1   0.0000
    64 ****    89.4745 100.1182  79.5216   Du        1 RES1   0.0000
    65 ****    90.9164 102.5495  82.6508   Du        1 RES1   0.0000
    66 ****    90.3194 103.2545  81.3042   Du        1 RES1   0.0000
    67 ****    97.8239  95.6108  81.4097   Du        1 RES1   0.0000
    68 ****    98.4266  95.6512  79.8926   Du        1 RES1   0.0000
    69 ****    99.0150  97.7284  77.8539   Du        1 RES1   0.0000
    70 ****    98.5702  96.4134  78.7138   Du        1 RES1   0.0000
@<TRIPOS>BOND
     1     1     2   ar
     2     2     3   ar
     3     3     4   ar
     4     4     5   ar
     5     5     6   ar
     6     1     6   ar
     7     5     7   ar
     8     7     8   ar
     9     8     9   ar
    10     4     9   ar
    11     7    10    1
    12    10    11    1
    13    11    12    1
    14    12    13    1
    15    13    14    1
    16    10    14    1
    17    13    15    1
    18    15    16    1
    19    16    17    1
    20    17    18    2
    21    17    19    1
    22    17    20    1
    23    20    21    1
    24    21    22    2
    25    21    23    1
    26    21    24    1
    27    24    25    1
    28    25    26    2
    29    25    27    1
    30    25    28    1
    31    12    29    1
    32    11    30    1
    33     3    31    1
    34     1    32    1
    35     8    33    1
    36    10    34    1
    37    11    35    1
    38    12    36    1
    39    13    37    1
    40    15    38    1
    41    15    39    1
    42    19    40    1
    43    23    41    1
    44    27    42    1
    45    28    43    1
    46    29    44    1
    47    30    45    1
    48    31    46    1
    49    31    47    1
    50     2    48    1
    51     6    49    1
    52     9    50    1
    53    14    51    1
    54    14    52    1
    55    18    53    1
    56    18    54    1
    57    19    55    1
    58    19    56    1
    59    22    57    1
    60    22    58    1
    61    23    59    1
    62    23    60    1
    63    26    61    1
    64    26    62    1
    65    27    63    1
    66    27    64    1
    67    28    65    1
    68    28    66    1
    69    29    67    1
    70    29    68    1
    71    30    69    1
    72    30    70    1
@<TRIPOS>SUBSTRUCTURE
     1 RES1        1 GROUP             0 ****  ****    0  
@<TRIPOS>MOLECULE
ATP|ATP|mol2|1|dock15
    70    72     1     0     0
SMALL
NO_CHARGES
****
Generated from the CSD

@<TRIPOS>ATOM
     1 C      102.2862 100.6835  77.4939   C.ar      1 RES1   0.0000
     2 N      103.3889 101.4155  77.7749   N.ar      1 RES1   0.0000
     3 C      103.8385 101.5626  79.0390   C.ar      1 RES1   0.0000
     4 C      103.1179 100.9270  80.0463   C.ar      1 RES1   0.0000
     5 C      101.9905 100.1856  79.7297   C.ar      1 RES1   0.0000
     6 N      101.5742 100.0614  78.4580   N.ar      1 RES1   0.0000
     7 N      101.5118  99.7050  80.8900   N.ar      1 RES1   0.0000
     8 C      102.3035 100.1143  81.9023   C.ar      1 RES1   0.0000
     9 N      103.2916 100.8696  81.3795   N.ar      1 RES1   0.0000
    10 C      100.4018  98.9284  81.0338   C.3       1 RES1   0.0000
    11 C       99.6622  99.2009  82.3652   C.3       1 RES1   0.0000
    12 C       98.2173  99.5096  81.9242   C.3       1 RES1   0.0000
    13 C       98.1637  98.8891  80.5170   C.3       1 RES1   0.0000
    14 O       99.4514  99.2471  80.0107   O.3       1 RES1   0.0000
    15 C       97.0478  99.4963  79.6450   C.3       1 RES1   0.0000
    16 O       97.5827  99.7134  78.3371   O.3       1 RES1   0.0000
    17 P       96.7526 100.2663  77.0869   P.3       1 RES1   0.0000
    18 O       97.4089 101.4896  76.5456   O.2       1 RES1   0.0000
    19 O       96.6863  99.1472  75.9454   O.3       1 RES1   0.0000
    20 O       95.2716 100.6156  77.5847   O.3       1 RES1   0.0000
    21 P       94.3831 101.1568  76.3668   P.3       1 RES1   0.0000
    22 O       94.0913 100.0262  75.4414   O.2       1 RES1   0.0000
    23 O       95.2141 102.2788  75.5836   O.3       1 RES1   0.0000
    24 O       93.0125 101.7669  76.9301   O.3       1 RES1   0.0000
    25 P       93.2622 102.9134  78.0197   P.3       1 RES1   0.0000
    26 O       94.0622 104.0177  77.4191   O.2       1 RES1   0.0000
    27 O       94.0696 102.3018  79.2580   O.3       1 RES1   0.0000
    28 O       91.8607 103.4882  78.5350   O.3       1 RES1   0.0000
    29 O       97.2424  98.9298  82.7981   O.3       1 RES1   0.0000
    30 O       99.6814  98.0327  83.1947   O.3       1 RES1   0.0000
    31 N      104.9386 102.2937  79.3193   N.pl3     1 RES1   0.0000
    32 H1     101.9644 100.5936  76.4629   H         1 RES1   0.0000
    33 H2     102.1706  99.8803  82.9526   H         1 RES1   0.0000
    34 H3     100.6471  97.8578  80.9597   H         1 RES1   0.0000
    35 H4     100.0855 100.0581  82.9117   H         1 RES1   0.0000
    36 H5      98.0857 100.6001  81.8473   H         1 RES1   0.0000
    37 H6      98.0670  97.7950  80.5929   H         1 RES1   0.0000
    38 H7      96.6924 100.4410  80.0826   H         1 RES1   0.0000
    39 H8      96.2119  98.7842  79.5756   H         1 RES1   0.0000
    40 H9      97.4679  98.6084  75.9808   H         1 RES1   0.0000
    41 H10     96.0127 102.4812  76.0563   H         1 RES1   0.0000
    42 H11     94.8206 102.8513  79.4489   H         1 RES1   0.0000
    43 H12     91.2595 103.5629  77.8033   H         1 RES1   0.0000
    44 H13     96.9323  99.5780  83.4202   H         1 RES1   0.0000
    45 H14    100.5555  97.8810  83.5360   H         1 RES1   0.0000
    46 H15    105.4561 102.7554  78.5580   H         1 RES1   0.0000
    47 H16    105.2613 102.3908  80.2930   H         1 RES1   0.0000
    48 ****   103.8833 101.8587  77.0271   Du        1 RES1   0.0000
    49 ****   100.7613  99.5244  78.2324   Du        1 RES1   0.0000
    50 ****   104.0267 101.3109  81.8941   Du        1 RES1   0.0000
    51 ****    99.4810 100.2255  79.8061   Du        1 RES1   0.0000
    52 ****    99.6517  98.7267  79.1806   Du        1 RES1   0.0000
    53 ****    98.2181 101.4071  75.9639   Du        1 RES1   0.0000
    54 ****    97.0401 102.3931  76.7640   Du        1 RES1   0.0000
    55 ****    96.6267  99.5884  75.0500   Du        1 RES1   0.0000
    56 ****    95.8799  98.5733  76.0885   Du        1 RES1   0.0000
    57 ****    94.1780  99.0828  75.7616   Du        1 RES1   0.0000
    58 ****    93.8087 100.2107  74.5000   Du        1 RES1   0.0000
    59 ****    94.6584 103.1063  75.5028   Du        1 RES1   0.0000
    60 ****    95.4458 101.9424  74.6708   Du        1 RES1   0.0000
    61 ****    93.6111 104.8622  77.1305   Du        1 RES1   0.0000
    62 ****    95.0502 103.9143  77.3047   Du        1 RES1   0.0000
    63 ****    94.3808 101.3793  79.0301   Du        1 RES1   0.0000
    64 ****    93.4723 102.2636  80.0592   Du        1 RES1   0.0000
    65 ****    92.0008 104.3898  78.9443   Du        1 RES1   0.0000
    66 ****    91.4774 102.8675  79.2190   Du        1 RES1   0.0000
    67 ****    97.6561  98.1668  83.2947   Du        1 RES1   0.0000
    68 ****    96.4707  98.5959  82.2568   Du        1 RES1   0.0000
    69 ****    99.3971  97.2408  82.6543   Du        1 RES1   0.0000
    70 ****    99.0478  98.1604  83.9577   Du        1 RES1   0.0000
@<TRIPOS>BOND
     1     1     2   ar
     2     2     3   ar
     3     3     4   ar
     4     4     5   ar
     5     5     6   ar
     6     1     6   ar
     7     5     7   ar
     8     7     8   ar
     9     8     9   ar
    10     4     9   ar
    11     7    10    1
    12    10    11    1
    13    11    12    1
    14    12    13    1
    15    13    14    1
    16    10    14    1
    17    13    15    1
    18    15    16    1
    19    16    17    1
    20    17    18    2
    21    17    19    1
    22    17    20    1
    23    20    21    1
    24    21    22    2
    25    21    23    1
    26    21    24    1
    27    24    25    1
    28    25    26    2
    29    25    27    1
    30    25    28    1
    31    12    29    1
    32    11    30    1
    33     3    31    1
    34     1    32    1
    35     8    33    1
    36    10    34    1
    37    11    35    1
    38    12    36    1
    39    13    37    1
    40    15    38    1
    41    15    39    1
    42    19    40    1
    43    23    41    1
    44    27    42    1
    45    28    43    1
    46    29    44    1
    47    30    45    1
    48    31    46    1
    49    31    47    1
    50     2    48    1
    51     6    49    1
    52     9    50    1
    53    14    51    1
    54    14    52    1
    55    18    53    1
    56    18    54    1
    57    19    55    1
    58    19    56    1
    59    22    57    1
    60    22    58    1
    61    23    59    1
    62    23    60    1
    63    26    61    1
    64    26    62    1
    65    27    63    1
    66    27    64    1
    67    28    65    1
    68    28    66    1
    69    29    67    1
    70    29    68    1
    71    30    69    1
    72    30    70    1
@<TRIPOS>SUBSTRUCTURE
     1 RES1        1 GROUP             0 ****  ****    0  
@<TRIPOS>MOLECULE
ATP|ATP|mol2|1|dock21
    70    72     1     0     0
SMALL
NO_CHARGES
****
Generated from the CSD

@<TRIPOS>ATOM
     1 C      101.7381 100.1952  78.1699   C.ar      1 RES1   0.0000
     2 N      102.5870 100.8143  79.0224   N.ar      1 RES1   0.0000
     3 C      102.5712 100.5593  80.3477   C.ar      1 RES1   0.0000
     4 C      101.6417  99.6285  80.8033   C.ar      1 RES1   0.0000
     5 C      100.7826  99.0115  79.9076   C.ar      1 RES1   0.0000
     6 N      100.8292  99.2911  78.5940   N.ar      1 RES1   0.0000
     7 N      100.0098  98.1824  80.6299   N.ar      1 RES1   0.0000
     8 C      100.3653  98.2600  81.9286   C.ar      1 RES1   0.0000
     9 N      101.3701  99.1542  82.0330   N.ar      1 RES1   0.0000
    10 C       99.0189  97.3864  80.1393   C.3       1 RES1   0.0000
    11 C       97.7182  97.4870  80.9711   C.3       1 RES1   0.0000
    12 C       96.6414  97.8380  79.9247   C.3       1 RES1   0.0000
    13 C       97.3057  97.3961  78.6089   C.3       1 RES1   0.0000
    14 O       98.6524  97.8228  78.8253   O.3       1 RES1   0.0000
    15 C       96.7032  98.0990  77.3771   C.3       1 RES1   0.0000
    16 O       96.8586  99.5087  77.5572   O.3       1 RES1   0.0000
    17 P       95.6596 100.5665  77.5919   P.3       1 RES1   0.0000
    18 O       94.4369  99.9646  76.9895   O.2       1 RES1   0.0000
    19 O       95.3561 100.9891  79.1050   O.3       1 RES1   0.0000
    20 O       96.1047 101.8550  76.7524   O.3       1 RES1   0.0000
    21 P       94.8824 102.8800  76.6070   P.3       1 RES1   0.0000
    22 O       94.2789 103.1065  77.9502   O.2       1 RES1   0.0000
    23 O       93.7841 102.2353  75.6370   O.3       1 RES1   0.0000
    24 O       95.4127 104.2683  76.0074   O.3       1 RES1   0.0000
    25 P       96.4461 104.9972  76.9897   P.3       1 RES1   0.0000
    26 O       97.0602 106.1674  76.3015   O.2       1 RES1   0.0000
    27 O       97.6026 103.9707  77.3998   O.3       1 RES1   0.0000
    28 O       95.6864 105.4912  78.3084   O.3       1 RES1   0.0000
    29 O       95.4082  97.1479  80.1554   O.3       1 RES1   0.0000
    30 O       97.4162  96.2253  81.5793   O.3       1 RES1   0.0000
    31 N      103.4180 101.1777  81.1984   N.pl3     1 RES1   0.0000
    32 H1     101.7892 100.4324  77.1135   H         1 RES1   0.0000
    33 H2      99.9221  97.7039  82.7471   H         1 RES1   0.0000
    34 H3      99.3394  96.3349  80.0802   H         1 RES1   0.0000
    35 H4      97.7727  98.2728  81.7406   H         1 RES1   0.0000
    36 H5      96.4913  98.9288  79.9093   H         1 RES1   0.0000
    37 H6      97.2564  96.3004  78.5132   H         1 RES1   0.0000
    38 H7      95.6409  97.8347  77.2679   H         1 RES1   0.0000
    39 H8      97.2547  97.7910  76.4762   H         1 RES1   0.0000
    40 H9      95.6520 101.8796  79.2531   H         1 RES1   0.0000
    41 H10     92.9639 102.1243  76.1028   H         1 RES1   0.0000
    42 H11     97.4577 103.6690  78.2888   H         1 RES1   0.0000
    43 H12     95.6986 106.4403  78.3454   H         1 RES1   0.0000
    44 H13     95.5049  96.2251  79.9495   H         1 RES1   0.0000
    45 H14     96.8324  95.7197  81.0252   H         1 RES1   0.0000
    46 H15    104.0975 101.8631  80.8391   H         1 RES1   0.0000
    47 H16    103.3858 100.9656  82.2062   H         1 RES1   0.0000
    48 ****   103.2426 101.4776  78.6615   Du        1 RES1   0.0000
    49 ****   100.2093  98.8431  77.9499   Du        1 RES1   0.0000
    50 ****   101.8334  99.4191  82.8787   Du        1 RES1   0.0000
    51 ****    98.7119  98.8192  78.7644   Du        1 RES1   0.0000
    52 ****    99.2578  97.4106  78.1444   Du        1 RES1   0.0000
    53 ****    94.1420 100.2412  76.0749   Du        1 RES1   0.0000
    54 ****    93.9111  99.2841  77.4999   Du        1 RES1   0.0000
    55 ****    95.8377 100.3708  79.7261   Du        1 RES1   0.0000
    56 ****    94.3723 100.9328  79.2751   Du        1 RES1   0.0000
    57 ****    94.8677 103.2119  78.7516   Du        1 RES1   0.0000
    58 ****    93.2850 103.1531  78.0505   Du        1 RES1   0.0000
    59 ****    94.1067 101.3444  75.3174   Du        1 RES1   0.0000
    60 ****    93.6403 102.8387  74.8525   Du        1 RES1   0.0000
    61 ****    97.4597 106.9103  76.8387   Du        1 RES1   0.0000
    62 ****    97.0728 106.2099  75.3025   Du        1 RES1   0.0000
    63 ****    98.4899 104.4284  77.3435   Du        1 RES1   0.0000
    64 ****    97.5907 103.1888  76.7764   Du        1 RES1   0.0000
    65 ****    96.1454 105.1204  79.1158   Du        1 RES1   0.0000
    66 ****    94.7393 105.1709  78.2869   Du        1 RES1   0.0000
    67 ****    94.6954  97.5428  79.5757   Du        1 RES1   0.0000
    68 ****    95.1491  97.2467  81.1162   Du        1 RES1   0.0000
    69 ****    96.9763  96.3830  82.4634   Du        1 RES1   0.0000
    70 ****    98.2649  95.7143  81.7158   Du        1 RES1   0.0000
@<TRIPOS>BOND
     1     1     2   ar
     2     2     3   ar
     3     3     4   ar
     4     4     5   ar
     5     5     6   ar
     6     1     6   ar
     7     5     7   ar
     8     7     8   ar
     9     8     9   ar
    10     4     9   ar
    11     7    10    1
    12    10    11    1
    13    11    12    1
    14    12    13    1
    15    13    14    1
    16    10    14    1
    17    13    15    1
    18    15    16    1
    19    16    17    1
    20    17    18    2
    21    17    19    1
    22    17    20    1
    23    20    21    1
    24    21    22    2
    25    21    23    1
    26    21    24    1
    27    24    25    1
    28    25    26    2
    29    25    27    1
    30    25    28    1
    31    12    29    1
    32    11    30    1
    33     3    31    1
    34     1    32    1
    35     8    33    1
    36    10    34    1
    37    11    35    1
    38    12    36    1
    39    13    37    1
    40    15    38    1
    41    15    39    1
    42    19    40    1
    43    23    41    1
    44    27    42    1
    45    28    43    1
    46    29    44    1
    47    30    45    1
    48    31    46    1
    49    31    47    1
    50     2    48    1
    51     6    49    1
    52     9    50    1
    53    14    51    1
    54    14    52    1
    55    18    53    1
    56    18    54    1
    57    19    55    1
    58    19    56    1
    59    22    57    1
    60    22    58    1
    61    23    59    1
    62    23    60    1
    63    26    61    1
    64    26    62    1
    65    27    63    1
    66    27    64    1
    67    28    65    1
    68    28    66    1
    69    29    67    1
    70    29    68    1
    71    30    69    1
    72    30    70    1
@<TRIPOS>SUBSTRUCTURE
     1 RES1        1 GROUP             0 ****  ****    0  
@<TRIPOS>MOLECULE
ATP|ATP|mol2|1|dock3
    70    72     1     0     0
SMALL
NO_CHARGES
****
Generated from the CSD

@<TRIPOS>ATOM
     1 C      103.8275 100.6721  81.9361   C.ar      1 RES1   0.0000
     2 N      104.0879 101.6010  80.9873   N.ar      1 RES1   0.0000
     3 C      103.4806 101.5725  79.7823   C.ar      1 RES1   0.0000
     4 C      102.5708 100.5438  79.5550   C.ar      1 RES1   0.0000
     5 C      102.3254  99.6044  80.5442   C.ar      1 RES1   0.0000
     6 N      102.9495  99.6666  81.7326   N.ar      1 RES1   0.0000
     7 N      101.4213  98.7471  80.0401   N.ar      1 RES1   0.0000
     8 C      101.0971  99.1269  78.7872   C.ar      1 RES1   0.0000
     9 N      101.8092 100.2336  78.4898   N.ar      1 RES1   0.0000
    10 C      100.9081  97.6608  80.6825   C.3       1 RES1   0.0000
    11 C      101.2578  97.6497  82.1897   C.3       1 RES1   0.0000
    12 C       99.8871  97.5091  82.8818   C.3       1 RES1   0.0000
    13 C       99.0054  96.9462  81.7532   C.3       1 RES1   0.0000
    14 O       99.4772  97.7008  80.6350   O.3       1 RES1   0.0000
    15 C       97.5049  97.2044  81.9902   C.3       1 RES1   0.0000
    16 O       96.9255  97.5972  80.7437   O.3       1 RES1   0.0000
    17 P       96.1330  98.9630  80.4905   P.3       1 RES1   0.0000
    18 O       95.1896  99.2161  81.6158   O.2       1 RES1   0.0000
    19 O       97.1700 100.1765  80.3807   O.3       1 RES1   0.0000
    20 O       95.3210  98.8232  79.1178   O.3       1 RES1   0.0000
    21 P       96.1490  99.4682  77.9077   P.3       1 RES1   0.0000
    22 O       97.5604  98.9968  77.9822   O.2       1 RES1   0.0000
    23 O       96.1163 101.0619  78.0549   O.3       1 RES1   0.0000
    24 O       95.4988  99.0216  76.5127   O.3       1 RES1   0.0000
    25 P       95.4538  97.4295  76.3473   P.3       1 RES1   0.0000
    26 O       94.8700  97.0739  75.0234   O.2       1 RES1   0.0000
    27 O       94.5419  96.8017  77.5021   O.3       1 RES1   0.0000
    28 O       96.9330  96.8295  76.4574   O.3       1 RES1   0.0000
    29 O       99.9314  96.6293  84.0106   O.3       1 RES1   0.0000
    30 O      102.0818  96.5200  82.5023   O.3       1 RES1   0.0000
    31 N      103.7411 102.4992  78.8355   N.pl3     1 RES1   0.0000
    32 H1     104.3396 100.7372  82.8891   H         1 RES1   0.0000
    33 H2     100.3903  98.6309  78.1315   H         1 RES1   0.0000
    34 H3     101.2458  96.7217  80.2179   H         1 RES1   0.0000
    35 H4     101.7540  98.5786  82.5115   H         1 RES1   0.0000
    36 H5      99.5202  98.5071  83.1681   H         1 RES1   0.0000
    37 H6      99.2138  95.8741  81.6136   H         1 RES1   0.0000
    38 H7      97.3675  97.9895  82.7486   H         1 RES1   0.0000
    39 H8      97.0248  96.2746  82.3303   H         1 RES1   0.0000
    40 H9      96.6954 100.9952  80.2976   H         1 RES1   0.0000
    41 H10     96.8072 101.3485  78.6402   H         1 RES1   0.0000
    42 H11     94.2074  97.4978  78.0551   H         1 RES1   0.0000
    43 H12     97.5675  97.5324  76.3816   H         1 RES1   0.0000
    44 H13    100.6814  96.0490  83.9455   H         1 RES1   0.0000
    45 H14    102.1617  95.9471  81.7479   H         1 RES1   0.0000
    46 H15    104.4182 103.2515  79.0256   H         1 RES1   0.0000
    47 H16    103.2642 102.4553  77.9232   H         1 RES1   0.0000
    48 ****   104.7471 102.3269  81.1839   Du        1 RES1   0.0000
    49 ****   102.7691  98.9884  82.4451   Du        1 RES1   0.0000
    50 ****   101.7766 100.7368  77.6263   Du        1 RES1   0.0000
    51 ****    99.1570  98.6460  80.6978   Du        1 RES1   0.0000
    52 ****    99.1496  97.2939  79.7822   Du        1 RES1   0.0000
    53 ****    94.3951  99.8077  81.4788   Du        1 RES1   0.0000
    54 ****    95.3510  98.7943  82.5080   Du        1 RES1   0.0000
    55 ****    97.7512 100.0458  79.5775   Du        1 RES1   0.0000
    56 ****    97.7386 100.2036  81.2028   Du        1 RES1   0.0000
    57 ****    98.2492  99.3820  77.3681   Du        1 RES1   0.0000
    58 ****    97.8189  98.2953  78.6463   Du        1 RES1   0.0000
    59 ****    95.2308 101.3421  78.4255   Du        1 RES1   0.0000
    60 ****    96.2490 101.4801  77.1563   Du        1 RES1   0.0000
    61 ****    93.9842  97.4492  74.7505   Du        1 RES1   0.0000
    62 ****    95.3640  96.4599  74.4078   Du        1 RES1   0.0000
    63 ****    95.0890  96.1718  78.0534   Du        1 RES1   0.0000
    64 ****    93.7770  96.3062  77.0905   Du        1 RES1   0.0000
    65 ****    97.0795  96.1678  75.7221   Du        1 RES1   0.0000
    66 ****    97.0432  96.3753  77.3415   Du        1 RES1   0.0000
    67 ****    99.0934  96.0842  84.0376   Du        1 RES1   0.0000
    68 ****   100.0042  97.1703  84.8485   Du        1 RES1   0.0000
    69 ****   101.6704  96.0120  83.2591   Du        1 RES1   0.0000
    70 ****   102.9906  96.8397  82.7704   Du        1 RES1   0.0000
@<TRIPOS>BOND
     1     1     2   ar
     2     2     3   ar
     3     3     4   ar
     4     4     5   ar
     5     5     6   ar
     6     1     6   ar
     7     5     7   ar
     8     7     8   ar
     9     8     9   ar
    10     4     9   ar
    11     7    10    1
    12    10    11    1
    13    11    12    1
    14    12    13    1
    15    13    14    1
    16    10    14    1
    17    13    15    1
    18    15    16    1
    19    16    17    1
    20    17    18    2
    21    17    19    1
    22    17    20    1
    23    20    21    1
    24    21    22    2
    25    21    23    1
    26    21    24    1
    27    24    25    1
    28    25    26    2
    29    25    27    1
    30    25    28    1
    31    12    29    1
    32    11    30    1
    33     3    31    1
    34     1    32    1
    35     8    33    1
    36    10    34    1
    37    11    35    1
    38    12    36    1
    39    13    37    1
    40    15    38    1
    41    15    39    1
    42    19    40    1
    43    23    41    1
    44    27    42    1
    45    28    43    1
    46    29    44    1
    47    30    45    1
    48    31    46    1
    49    31    47    1
    50     2    48    1
    51     6    49    1
    52     9    50    1
    53    14    51    1
    54    14    52    1
    55    18    53    1
    56    18    54    1
    57    19    55    1
    58    19    56    1
    59    22    57    1
    60    22    58    1
    61    23    59    1
    62    23    60    1
    63    26    61    1
    64    26    62    1
    65    27    63    1
    66    27    64    1
    67    28    65    1
    68    28    66    1
    69    29    67    1
    70    29    68    1
    71    30    69    1
    72    30    70    1
@<TRIPOS>SUBSTRUCTURE
     1 RES1        1 GROUP             0 ****  ****    0  
@<TRIPOS>MOLECULE
ATP|ATP|mol2|1|dock17
    70    72     1     0     0
SMALL
NO_CHARGES
****
Generated from the CSD

@<TRIPOS>ATOM
     1 C      102.5464 101.8085  80.6294   C.ar      1 RES1   0.0000
     2 N      103.8599 101.7946  80.9537   N.ar      1 RES1   0.0000
     3 C      104.4958 100.6512  81.2855   C.ar      1 RES1   0.0000
     4 C      103.7411  99.4815  81.2798   C.ar      1 RES1   0.0000
     5 C      102.3966  99.5257  80.9460   C.ar      1 RES1   0.0000
     6 N      101.7986 100.6841  80.6201   N.ar      1 RES1   0.0000
     7 N      101.9404  98.2645  81.0331   N.ar      1 RES1   0.0000
     8 C      102.9509  97.4492  81.3982   C.ar      1 RES1   0.0000
     9 N      104.0595  98.2027  81.5520   N.ar      1 RES1   0.0000
    10 C      100.6610  97.8614  80.7953   C.3       1 RES1   0.0000
    11 C      100.2017  96.7548  81.7743   C.3       1 RES1   0.0000
    12 C       98.8967  97.3159  82.3741   C.3       1 RES1   0.0000
    13 C       98.4895  98.3786  81.3383   C.3       1 RES1   0.0000
    14 O       99.7596  98.9515  81.0200   O.3       1 RES1   0.0000
    15 C       97.5433  99.4440  81.9247   C.3       1 RES1   0.0000
    16 O       96.2238  98.8941  81.9464   O.3       1 RES1   0.0000
    17 P       95.3438  98.5703  80.6509   P.3       1 RES1   0.0000
    18 O       96.1235  97.7172  79.7104   O.2       1 RES1   0.0000
    19 O       94.0077  97.8036  81.0835   O.3       1 RES1   0.0000
    20 O       94.9642  99.9561  79.9447   O.3       1 RES1   0.0000
    21 P       93.4670 100.3851  80.3187   P.3       1 RES1   0.0000
    22 O       93.2298 100.1040  81.7625   O.2       1 RES1   0.0000
    23 O       92.4491  99.5184  79.4382   O.3       1 RES1   0.0000
    24 O       93.2668 101.9484  80.0285   O.3       1 RES1   0.0000
    25 P       93.5826 102.3272  78.5051   P.3       1 RES1   0.0000
    26 O       92.3207 102.6903  77.8011   O.2       1 RES1   0.0000
    27 O       94.2424 101.0681  77.7711   O.3       1 RES1   0.0000
    28 O       94.5987 103.5620  78.4513   O.3       1 RES1   0.0000
    29 O       97.8887  96.3109  82.5288   O.3       1 RES1   0.0000
    30 O       99.9308  95.5407  81.0633   O.3       1 RES1   0.0000
    31 N      105.8065 100.6377  81.6096   N.pl3     1 RES1   0.0000
    32 H1     102.0798 102.7515  80.3689   H         1 RES1   0.0000
    33 H2     102.8861  96.3769  81.5447   H         1 RES1   0.0000
    34 H3     100.5347  97.5133  79.7586   H         1 RES1   0.0000
    35 H4     100.9385  96.5684  82.5713   H         1 RES1   0.0000
    36 H5      99.1197  97.8082  83.3335   H         1 RES1   0.0000
    37 H6      98.0509  97.8916  80.4537   H         1 RES1   0.0000
    38 H7      97.5741 100.3594  81.3154   H         1 RES1   0.0000
    39 H8      97.8506  99.6761  82.9554   H         1 RES1   0.0000
    40 H9      93.3993  97.7863  80.3541   H         1 RES1   0.0000
    41 H10     91.8154  99.0900  80.0013   H         1 RES1   0.0000
    42 H11     94.5568 101.3301  76.9139   H         1 RES1   0.0000
    43 H12     95.3104 103.4148  79.0630   H         1 RES1   0.0000
    44 H13     97.4430  96.1628  81.7024   H         1 RES1   0.0000
    45 H14    100.6073  95.3757  80.4162   H         1 RES1   0.0000
    46 H15    106.3453 101.5154  81.6073   H         1 RES1   0.0000
    47 H16    106.2687  99.7514  81.8595   H         1 RES1   0.0000
    48 ****   104.3726 102.6532  80.9473   Du        1 RES1   0.0000
    49 ****   100.8288 100.7127  80.3780   Du        1 RES1   0.0000
    50 ****   104.9624  97.8683  81.8219   Du        1 RES1   0.0000
    51 ****   100.0833  99.5148  81.7802   Du        1 RES1   0.0000
    52 ****    99.6869  99.5136  80.1961   Du        1 RES1   0.0000
    53 ****    96.3311  98.0483  78.7900   Du        1 RES1   0.0000
    54 ****    96.4393  96.8135  79.9998   Du        1 RES1   0.0000
    55 ****    93.5870  98.2787  81.8564   Du        1 RES1   0.0000
    56 ****    94.2334  96.8668  81.3509   Du        1 RES1   0.0000
    57 ****    93.9411  99.6621  82.3093   Du        1 RES1   0.0000
    58 ****    92.3594 100.3571  82.1848   Du        1 RES1   0.0000
    59 ****    92.9594  98.8264  78.9276   Du        1 RES1   0.0000
    60 ****    91.9704 100.1193  78.7981   Du        1 RES1   0.0000
    61 ****    91.9379 102.0753  77.1118   Du        1 RES1   0.0000
    62 ****    91.8565 103.5491  78.0179   Du        1 RES1   0.0000
    63 ****    93.5585 100.3457  77.6689   Du        1 RES1   0.0000
    64 ****    95.0079 100.7274  78.3170   Du        1 RES1   0.0000
    65 ****    94.1155 104.4019  78.6984   Du        1 RES1   0.0000
    66 ****    94.9676 103.6497  77.5260   Du        1 RES1   0.0000
    67 ****    97.2244  96.6119  83.2129   Du        1 RES1   0.0000
    68 ****    98.3156  95.4586  82.8311   Du        1 RES1   0.0000
    69 ****    99.0468  95.6196  80.6024   Du        1 RES1   0.0000
    70 ****    99.9022  94.7794  81.7110   Du        1 RES1   0.0000
@<TRIPOS>BOND
     1     1     2   ar
     2     2     3   ar
     3     3     4   ar
     4     4     5   ar
     5     5     6   ar
     6     1     6   ar
     7     5     7   ar
     8     7     8   ar
     9     8     9   ar
    10     4     9   ar
    11     7    10    1
    12    10    11    1
    13    11    12    1
    14    12    13    1
    15    13    14    1
    16    10    14    1
    17    13    15    1
    18    15    16    1
    19    16    17    1
    20    17    18    2
    21    17    19    1
    22    17    20    1
    23    20    21    1
    24    21    22    2
    25    21    23    1
    26    21    24    1
    27    24    25    1
    28    25    26    2
    29    25    27    1
    30    25    28    1
    31    12    29    1
    32    11    30    1
    33     3    31    1
    34     1    32    1
    35     8    33    1
    36    10    34    1
    37    11    35    1
    38    12    36    1
    39    13    37    1
    40    15    38    1
    41    15    39    1
    42    19    40    1
    43    23    41    1
    44    27    42    1
    45    28    43    1
    46    29    44    1
    47    30    45    1
    48    31    46    1
    49    31    47    1
    50     2    48    1
    51     6    49    1
    52     9    50    1
    53    14    51    1
    54    14    52    1
    55    18    53    1
    56    18    54    1
    57    19    55    1
    58    19    56    1
    59    22    57    1
    60    22    58    1
    61    23    59    1
    62    23    60    1
    63    26    61    1
    64    26    62    1
    65    27    63    1
    66    27    64    1
    67    28    65    1
    68    28    66    1
    69    29    67    1
    70    29    68    1
    71    30    69    1
    72    30    70    1
@<TRIPOS>SUBSTRUCTURE
     1 RES1        1 GROUP             0 ****  ****    0  
@<TRIPOS>MOLECULE
ATP|ATP|mol2|1|dock10
    70    72     1     0     0
SMALL
NO_CHARGES
****
Generated from the CSD

@<TRIPOS>ATOM
     1 C       97.3977  94.0508  82.9411   C.ar      1 RES1   0.0000
     2 N       98.3368  93.2013  83.4175   N.ar      1 RES1   0.0000
     3 C       99.6544  93.4810  83.3311   C.ar      1 RES1   0.0000
     4 C      100.0088  94.6852  82.7293   C.ar      1 RES1   0.0000
     5 C       99.0256  95.5351  82.2478   C.ar      1 RES1   0.0000
     6 N       97.7230  95.2221  82.3531   N.ar      1 RES1   0.0000
     7 N       99.6621  96.5973  81.7252   N.ar      1 RES1   0.0000
     8 C      100.9930  96.4369  81.8739   C.ar      1 RES1   0.0000
     9 N      101.2040  95.2559  82.4911   N.ar      1 RES1   0.0000
    10 C       99.0678  97.6710  81.1336   C.3       1 RES1   0.0000
    11 C       99.3027  97.7045  79.6047   C.3       1 RES1   0.0000
    12 C       97.8802  97.8057  79.0185   C.3       1 RES1   0.0000
    13 C       97.0683  98.3315  80.2154   C.3       1 RES1   0.0000
    14 O       97.6465  97.5844  81.2877   O.3       1 RES1   0.0000
    15 C       95.5632  98.0265  80.0888   C.3       1 RES1   0.0000
    16 O       94.8443  99.1222  80.6602   O.3       1 RES1   0.0000
    17 P       93.2698  99.1401  80.9397   P.3       1 RES1   0.0000
    18 O       92.5374  98.6516  79.7375   O.2       1 RES1   0.0000
    19 O       92.9325  98.1988  82.1888   O.3       1 RES1   0.0000
    20 O       92.8371 100.6461  81.2685   O.3       1 RES1   0.0000
    21 P       91.2417 100.7681  81.3431   P.3       1 RES1   0.0000
    22 O       90.6795 100.6003  79.9736   O.2       1 RES1   0.0000
    23 O       90.8630 102.2225  81.8944   O.3       1 RES1   0.0000
    24 O       90.6601  99.6330  82.3132   O.3       1 RES1   0.0000
    25 P       89.0728  99.7446  82.4931   P.3       1 RES1   0.0000
    26 O       88.4015  99.5997  81.1708   O.2       1 RES1   0.0000
    27 O       88.7078 101.1765  83.1062   O.3       1 RES1   0.0000
    28 O       88.5559  98.5989  83.4831   O.3       1 RES1   0.0000
    29 O       97.8116  98.6948  77.8982   O.3       1 RES1   0.0000
    30 O      100.0646  98.8626  79.2423   O.3       1 RES1   0.0000
    31 N      100.5915  92.6328  83.8060   N.pl3     1 RES1   0.0000
    32 H1      96.3516  93.7828  83.0343   H         1 RES1   0.0000
    33 H2     101.7605  97.1323  81.5532   H         1 RES1   0.0000
    34 H3      99.4094  98.6172  81.5808   H         1 RES1   0.0000
    35 H4      99.8026  96.7945  79.2377   H         1 RES1   0.0000
    36 H5      97.5247  96.7985  78.7508   H         1 RES1   0.0000
    37 H6      97.2524  99.4087  80.3494   H         1 RES1   0.0000
    38 H7      95.3188  97.0873  80.6069   H         1 RES1   0.0000
    39 H8      95.2974  97.9409  79.0245   H         1 RES1   0.0000
    40 H9      93.6585  98.2091  82.8014   H         1 RES1   0.0000
    41 H10     91.2826 102.3715  82.7334   H         1 RES1   0.0000
    42 H11     88.6109 101.8070  82.4023   H         1 RES1   0.0000
    43 H12     87.6065  98.6084  83.5120   H         1 RES1   0.0000
    44 H13     98.3108  98.3438  77.1694   H         1 RES1   0.0000
    45 H14    100.6979  98.6467  78.5671   H         1 RES1   0.0000
    46 H15    100.3062  91.7471  84.2474   H         1 RES1   0.0000
    47 H16    101.5913  92.8694  83.7277   H         1 RES1   0.0000
    48 ****    98.0475  92.3445  83.8444   Du        1 RES1   0.0000
    49 ****    97.0157  95.8381  82.0064   Du        1 RES1   0.0000
    50 ****   102.0953  94.8708  82.7305   Du        1 RES1   0.0000
    51 ****    97.3526  96.6297  81.2398   Du        1 RES1   0.0000
    52 ****    97.3711  97.9742  82.1665   Du        1 RES1   0.0000
    53 ****    92.2630  99.2955  79.0233   Du        1 RES1   0.0000
    54 ****    92.3203  97.6798  79.6450   Du        1 RES1   0.0000
    55 ****    92.7802  97.2636  81.8691   Du        1 RES1   0.0000
    56 ****    92.1078  98.5337  82.6446   Du        1 RES1   0.0000
    57 ****    90.2781 101.3833  79.4984   Du        1 RES1   0.0000
    58 ****    90.7035  99.7046  79.5295   Du        1 RES1   0.0000
    59 ****    89.8712 102.2871  82.0041   Du        1 RES1   0.0000
    60 ****    91.1720 102.9146  81.2421   Du        1 RES1   0.0000
    61 ****    88.0087 100.4006  80.7190   Du        1 RES1   0.0000
    62 ****    88.3438  98.7014  80.7352   Du        1 RES1   0.0000
    63 ****    89.4393 101.4724  83.7205   Du        1 RES1   0.0000
    64 ****    87.8500 101.1119  83.6161   Du        1 RES1   0.0000
    65 ****    88.9188  98.7627  84.4004   Du        1 RES1   0.0000
    66 ****    88.8701  97.7082  83.1545   Du        1 RES1   0.0000
    67 ****    98.1879  99.5839  78.1586   Du        1 RES1   0.0000
    68 ****    96.8568  98.8049  77.6219   Du        1 RES1   0.0000
    69 ****   100.5470  99.2047  80.0487   Du        1 RES1   0.0000
    70 ****    99.4459  99.5694  78.8993   Du        1 RES1   0.0000
@<TRIPOS>BOND
     1     1     2   ar
     2     2     3   ar
     3     3     4   ar
     4     4     5   ar
     5     5     6   ar
     6     1     6   ar
     7     5     7   ar
     8     7     8   ar
     9     8     9   ar
    10     4     9   ar
    11     7    10    1
    12    10    11    1
    13    11    12    1
    14    12    13    1
    15    13    14    1
    16    10    14    1
    17    13    15    1
    18    15    16    1
    19    16    17    1
    20    17    18    2
    21    17    19    1
    22    17    20    1
    23    20    21    1
    24    21    22    2
    25    21    23    1
    26    21    24    1
    27    24    25    1
    28    25    26    2
    29    25    27    1
    30    25    28    1
    31    12    29    1
    32    11    30    1
    33     3    31    1
    34     1    32    1
    35     8    33    1
    36    10    34    1
    37    11    35    1
    38    12    36    1
    39    13    37    1
    40    15    38    1
    41    15    39    1
    42    19    40    1
    43    23    41    1
    44    27    42    1
    45    28    43    1
    46    29    44    1
    47    30    45    1
    48    31    46    1
    49    31    47    1
    50     2    48    1
    51     6    49    1
    52     9    50    1
    53    14    51    1
    54    14    52    1
    55    18    53    1
    56    18    54    1
    57    19    55    1
    58    19    56    1
    59    22    57    1
    60    22    58    1
    61    23    59    1
    62    23    60    1
    63    26    61    1
    64    26    62    1
    65    27    63    1
    66    27    64    1
    67    28    65    1
    68    28    66    1
    69    29    67    1
    70    29    68    1
    71    30    69    1
    72    30    70    1
@<TRIPOS>SUBSTRUCTURE
     1 RES1        1 GROUP             0 ****  ****    0  
@<TRIPOS>MOLECULE
ATP|ATP|mol2|1|dock12
    70    72     1     0     0
SMALL
NO_CHARGES
****
Generated from the CSD

@<TRIPOS>ATOM
     1 C       94.5520  94.6321  84.2977   C.ar      1 RES1   0.0000
     2 N       94.4291  93.2849  84.3173   N.ar      1 RES1   0.0000
     3 C       95.3686  92.4798  83.7781   C.ar      1 RES1   0.0000
     4 C       96.4746  93.0954  83.1988   C.ar      1 RES1   0.0000
     5 C       96.5731  94.4779  83.1908   C.ar      1 RES1   0.0000
     6 N       95.6168  95.2465  83.7389   N.ar      1 RES1   0.0000
     7 N       97.7268  94.7744  82.5683   N.ar      1 RES1   0.0000
     8 C       98.3423  93.6315  82.2023   C.ar      1 RES1   0.0000
     9 N       97.5668  92.5979  82.5902   N.ar      1 RES1   0.0000
    10 C       98.2077  96.0276  82.3354   C.3       1 RES1   0.0000
    11 C       99.3255  96.0389  81.2657   C.3       1 RES1   0.0000
    12 C       98.8337  97.0739  80.2340   C.3       1 RES1   0.0000
    13 C       97.8115  97.8878  81.0469   C.3       1 RES1   0.0000
    14 O       97.1694  96.8525  81.7942   O.3       1 RES1   0.0000
    15 C       96.7954  98.6235  80.1521   C.3       1 RES1   0.0000
    16 O       96.7239  97.9270  78.9056   O.3       1 RES1   0.0000
    17 P       95.3704  97.5532  78.1402   P.3       1 RES1   0.0000
    18 O       95.6857  96.7964  76.8960   O.2       1 RES1   0.0000
    19 O       94.4434  96.6580  79.0885   O.3       1 RES1   0.0000
    20 O       94.6105  98.9140  77.7742   O.3       1 RES1   0.0000
    21 P       94.4871  99.0782  76.1856   P.3       1 RES1   0.0000
    22 O       95.8550  99.1354  75.5978   O.2       1 RES1   0.0000
    23 O       93.7189 100.4463  75.8687   O.3       1 RES1   0.0000
    24 O       93.6847  97.8318  75.5766   O.3       1 RES1   0.0000
    25 P       93.3889  98.0073  74.0127   P.3       1 RES1   0.0000
    26 O       91.9188  97.9953  73.7704   O.2       1 RES1   0.0000
    27 O       94.0575  96.7975  73.2072   O.3       1 RES1   0.0000
    28 O       94.0043  99.3905  73.4949   O.3       1 RES1   0.0000
    29 O       99.8940  97.8977  79.7366   O.3       1 RES1   0.0000
    30 O      100.5633  96.4730  81.8421   O.3       1 RES1   0.0000
    31 N       95.2454  91.1353  83.7972   N.pl3     1 RES1   0.0000
    32 H1      93.7715  95.2372  84.7445   H         1 RES1   0.0000
    33 H2      99.2924  93.5541  81.6857   H         1 RES1   0.0000
    34 H3      98.5772  96.4954  83.2609   H         1 RES1   0.0000
    35 H4      99.4570  95.0560  80.7868   H         1 RES1   0.0000
    36 H5      98.3157  96.5523  79.4142   H         1 RES1   0.0000
    37 H6      98.3359  98.5839  81.7196   H         1 RES1   0.0000
    38 H7      97.1075  99.6672  79.9980   H         1 RES1   0.0000
    39 H8      95.8052  98.6012  80.6312   H         1 RES1   0.0000
    40 H9      94.9246  95.8894  79.3718   H         1 RES1   0.0000
    41 H10     94.0286 100.8105  75.0480   H         1 RES1   0.0000
    42 H11     93.5671  96.0002  73.3688   H         1 RES1   0.0000
    43 H12     93.5161 100.1150  73.8680   H         1 RES1   0.0000
    44 H13     99.5393  98.6172  79.2267   H         1 RES1   0.0000
    45 H14    101.1159  95.7268  82.0454   H         1 RES1   0.0000
    46 H15     94.4184  90.7014  84.2312   H         1 RES1   0.0000
    47 H16     95.9768  90.5424  83.3785   H         1 RES1   0.0000
    48 ****    93.6217  92.8753  84.7420   Du        1 RES1   0.0000
    49 ****    95.6914  96.2437  83.7332   Du        1 RES1   0.0000
    50 ****    97.7688  91.6286  82.4496   Du        1 RES1   0.0000
    51 ****    96.5774  96.3125  81.1959   Du        1 RES1   0.0000
    52 ****    96.6243  97.2487  82.5330   Du        1 RES1   0.0000
    53 ****    95.4872  97.1986  76.0023   Du        1 RES1   0.0000
    54 ****    96.0959  95.8863  76.9548   Du        1 RES1   0.0000
    55 ****    93.6283  96.3729  78.5840   Du        1 RES1   0.0000
    56 ****    94.1703  97.1930  79.8880   Du        1 RES1   0.0000
    57 ****    96.0958  99.8690  74.9623   Du        1 RES1   0.0000
    58 ****    96.5322  98.4402  75.8387   Du        1 RES1   0.0000
    59 ****    93.8890 101.1000  76.6061   Du        1 RES1   0.0000
    60 ****    92.7374 100.2671  75.8019   Du        1 RES1   0.0000
    61 ****    91.5467  98.3967  72.9335   Du        1 RES1   0.0000
    62 ****    91.3043  97.5859  74.4448   Du        1 RES1   0.0000
    63 ****    95.0020  96.6756  73.5122   Du        1 RES1   0.0000
    64 ****    94.0471  97.0026  72.2285   Du        1 RES1   0.0000
    65 ****    93.9460  99.4283  72.4973   Du        1 RES1   0.0000
    66 ****    94.9620  99.4547  73.7755   Du        1 RES1   0.0000
    67 ****   100.4957  97.3477  79.1575   Du        1 RES1   0.0000
    68 ****   100.4163  98.2644  80.5065   Du        1 RES1   0.0000
    69 ****   100.3746  96.9813  82.6824   Du        1 RES1   0.0000
    70 ****   101.0383  97.0670  81.1928   Du        1 RES1   0.0000
@<TRIPOS>BOND
     1     1     2   ar
     2     2     3   ar
     3     3     4   ar
     4     4     5   ar
     5     5     6   ar
     6     1     6   ar
     7     5     7   ar
     8     7     8   ar
     9     8     9   ar
    10     4     9   ar
    11     7    10    1
    12    10    11    1
    13    11    12    1
    14    12    13    1
    15    13    14    1
    16    10    14    1
    17    13    15    1
    18    15    16    1
    19    16    17    1
    20    17    18    2
    21    17    19    1
    22    17    20    1
    23    20    21    1
    24    21    22    2
    25    21    23    1
    26    21    24    1
    27    24    25    1
    28    25    26    2
    29    25    27    1
    30    25    28    1
    31    12    29    1
    32    11    30    1
    33     3    31    1
    34     1    32    1
    35     8    33    1
    36    10    34    1
    37    11    35    1
    38    12    36    1
    39    13    37    1
    40    15    38    1
    41    15    39    1
    42    19    40    1
    43    23    41    1
    44    27    42    1
    45    28    43    1
    46    29    44    1
    47    30    45    1
    48    31    46    1
    49    31    47    1
    50     2    48    1
    51     6    49    1
    52     9    50    1
    53    14    51    1
    54    14    52    1
    55    18    53    1
    56    18    54    1
    57    19    55    1
    58    19    56    1
    59    22    57    1
    60    22    58    1
    61    23    59    1
    62    23    60    1
    63    26    61    1
    64    26    62    1
    65    27    63    1
    66    27    64    1
    67    28    65    1
    68    28    66    1
    69    29    67    1
    70    29    68    1
    71    30    69    1
    72    30    70    1
@<TRIPOS>SUBSTRUCTURE
     1 RES1        1 GROUP             0 ****  ****    0  
@<TRIPOS>MOLECULE
ATP|ATP|mol2|1|dock4
    70    72     1     0     0
SMALL
NO_CHARGES
****
Generated from the CSD

@<TRIPOS>ATOM
     1 C      101.6925 100.1010  77.2779   C.ar      1 RES1   0.0000
     2 N      102.8369 100.8140  77.3899   N.ar      1 RES1   0.0000
     3 C      103.4032 101.0609  78.5899   C.ar      1 RES1   0.0000
     4 C      102.7587 100.5490  79.7126   C.ar      1 RES1   0.0000
     5 C      101.5862  99.8242  79.5683   C.ar      1 RES1   0.0000
     6 N      101.0529  99.5982  78.3557   N.ar      1 RES1   0.0000
     7 N      101.2009  99.4717  80.8067   N.ar      1 RES1   0.0000
     8 C      102.0926  99.9432  81.7021   C.ar      1 RES1   0.0000
     9 N      103.0508 100.6091  81.0248   N.ar      1 RES1   0.0000
    10 C      100.0863  98.7539  81.1208   C.3       1 RES1   0.0000
    11 C       99.4300  99.2335  82.4373   C.3       1 RES1   0.0000
    12 C       97.9682  99.5152  82.0355   C.3       1 RES1   0.0000
    13 C       97.8219  98.7021  80.7373   C.3       1 RES1   0.0000
    14 O       99.0849  98.9491  80.1156   O.3       1 RES1   0.0000
    15 C       96.6694  99.2088  79.8488   C.3       1 RES1   0.0000
    16 O       96.9795  98.8724  78.4944   O.3       1 RES1   0.0000
    17 P       96.8692  99.8738  77.2523   P.3       1 RES1   0.0000
    18 O       98.1156 100.6831  77.1433   O.2       1 RES1   0.0000
    19 O       96.6552  99.0398  75.9038   O.3       1 RES1   0.0000
    20 O       95.6127 100.8357  77.4953   O.3       1 RES1   0.0000
    21 P       94.2691  99.9769  77.6456   P.3       1 RES1   0.0000
    22 O       94.6215  98.5296  77.6792   O.2       1 RES1   0.0000
    23 O       93.3324 100.2626  76.3792   O.3       1 RES1   0.0000
    24 O       93.5179 100.3858  79.0008   O.3       1 RES1   0.0000
    25 P       93.1858 101.9511  79.0609   P.3       1 RES1   0.0000
    26 O       92.0925 102.2744  78.1015   O.2       1 RES1   0.0000
    27 O       94.4906 102.7861  78.6613   O.3       1 RES1   0.0000
    28 O       92.7336 102.3545  80.5417   O.3       1 RES1   0.0000
    29 O       97.0344  99.0927  83.0353   O.3       1 RES1   0.0000
    30 O       99.4747  98.1955  83.4240   O.3       1 RES1   0.0000
    31 N      104.5450 101.7731  78.7016   N.pl3     1 RES1   0.0000
    32 H1     101.2760  99.9279  76.2923   H         1 RES1   0.0000
    33 H2     102.0487  99.8129  82.7775   H         1 RES1   0.0000
    34 H3     100.3065  97.6775  81.1884   H         1 RES1   0.0000
    35 H4      99.9003 100.1481  82.8310   H         1 RES1   0.0000
    36 H5      97.8533 100.5868  81.8097   H         1 RES1   0.0000
    37 H6      97.7089  97.6330  80.9749   H         1 RES1   0.0000
    38 H7      96.5491 100.2964  79.9626   H         1 RES1   0.0000
    39 H8      95.7367  98.7020  80.1383   H         1 RES1   0.0000
    40 H9      97.4922  98.7155  75.5928   H         1 RES1   0.0000
    41 H10     92.4273 100.3424  76.6558   H         1 RES1   0.0000
    42 H11     95.1399 102.7077  79.3501   H         1 RES1   0.0000
    43 H12     93.3558 102.0070  81.1697   H         1 RES1   0.0000
    44 H13     97.4591  99.0510  83.8846   H         1 RES1   0.0000
    45 H14     99.0827  97.3980  83.0863   H         1 RES1   0.0000
    46 H15    105.0046 102.1424  77.8572   H         1 RES1   0.0000
    47 H16    104.9573 101.9480  79.6295   H         1 RES1   0.0000
    48 ****   103.2741 101.1671  76.5628   Du        1 RES1   0.0000
    49 ****   100.2077  99.0734  78.2545   Du        1 RES1   0.0000
    50 ****   103.8420 101.0685  81.4286   Du        1 RES1   0.0000
    51 ****    99.1213  99.8872  79.7710   Du        1 RES1   0.0000
    52 ****    99.2271  98.3105  79.3594   Du        1 RES1   0.0000
    53 ****    98.4417 100.9806  76.2460   Du        1 RES1   0.0000
    54 ****    98.6260 100.9287  77.9674   Du        1 RES1   0.0000
    55 ****    96.2483  99.6314  75.2078   Du        1 RES1   0.0000
    56 ****    96.0452  98.2680  76.0832   Du        1 RES1   0.0000
    57 ****    94.0576  97.8661  77.1876   Du        1 RES1   0.0000
    58 ****    95.4221  98.2218  78.1934   Du        1 RES1   0.0000
    59 ****    93.4146  99.5070  75.7294   Du        1 RES1   0.0000
    60 ****    93.6205 101.1133  75.9395   Du        1 RES1   0.0000
    61 ****    91.9863 103.2085  77.7608   Du        1 RES1   0.0000
    62 ****    91.4651 101.5572  77.7983   Du        1 RES1   0.0000
    63 ****    94.2466 103.7484  78.5410   Du        1 RES1   0.0000
    64 ****    94.8665 102.4282  77.8065   Du        1 RES1   0.0000
    65 ****    91.8266 101.9765  80.7275   Du        1 RES1   0.0000
    66 ****    92.7020 103.3509  80.6205   Du        1 RES1   0.0000
    67 ****    96.6825  98.1875  82.7971   Du        1 RES1   0.0000
    68 ****    96.2771  99.7445  83.0764   Du        1 RES1   0.0000
    69 ****    98.9714  98.4913  84.2358   Du        1 RES1   0.0000
    70 ****   100.4272  98.0156  83.6695   Du        1 RES1   0.0000
@<TRIPOS>BOND
     1     1     2   ar
     2     2     3   ar
     3     3     4   ar
     4     4     5   ar
     5     5     6   ar
     6     1     6   ar
     7     5     7   ar
     8     7     8   ar
     9     8     9   ar
    10     4     9   ar
    11     7    10    1
    12    10    11    1
    13    11    12    1
    14    12    13    1
    15    13    14    1
    16    10    14    1
    17    13    15    1
    18    15    16    1
    19    16    17    1
    20    17    18    2
    21    17    19    1
    22    17    20    1
    23    20    21    1
    24    21    22    2
    25    21    23    1
    26    21    24    1
    27    24    25    1
    28    25    26    2
    29    25    27    1
    30    25    28    1
    31    12    29    1
    32    11    30    1
    33     3    31    1
    34     1    32    1
    35     8    33    1
    36    10    34    1
    37    11    35    1
    38    12    36    1
    39    13    37    1
    40    15    38    1
    41    15    39    1
    42    19    40    1
    43    23    41    1
    44    27    42    1
    45    28    43    1
    46    29    44    1
    47    30    45    1
    48    31    46    1
    49    31    47    1
    50     2    48    1
    51     6    49    1
    52     9    50    1
    53    14    51    1
    54    14    52    1
    55    18    53    1
    56    18    54    1
    57    19    55    1
    58    19    56    1
    59    22    57    1
    60    22    58    1
    61    23    59    1
    62    23    60    1
    63    26    61    1
    64    26    62    1
    65    27    63    1
    66    27    64    1
    67    28    65    1
    68    28    66    1
    69    29    67    1
    70    29    68    1
    71    30    69    1
    72    30    70    1
@<TRIPOS>SUBSTRUCTURE
     1 RES1        1 GROUP             0 ****  ****    0  
@<TRIPOS>MOLECULE
ATP|ATP|mol2|1|dock16
    70    72     1     0     0
SMALL
NO_CHARGES
****
Generated from the CSD

@<TRIPOS>ATOM
     1 C      101.6235  99.9620  77.4107   C.ar      1 RES1   0.0000
     2 N      102.6543 100.8346  77.4934   N.ar      1 RES1   0.0000
     3 C      103.1619 101.2209  78.6828   C.ar      1 RES1   0.0000
     4 C      102.5789 100.6819  79.8262   C.ar      1 RES1   0.0000
     5 C      101.5223  99.7921  79.7117   C.ar      1 RES1   0.0000
     6 N      101.0448  99.4305  78.5088   N.ar      1 RES1   0.0000
     7 N      101.1717  99.4533  80.9642   N.ar      1 RES1   0.0000
     8 C      101.9744 100.0919  81.8400   C.ar      1 RES1   0.0000
     9 N      102.8395 100.8506  81.1356   N.ar      1 RES1   0.0000
    10 C      100.1646  98.6025  81.3076   C.3       1 RES1   0.0000
    11 C       99.6830  98.8182  82.7620   C.3       1 RES1   0.0000
    12 C       98.1626  99.0299  82.6159   C.3       1 RES1   0.0000
    13 C       97.8763  98.4134  81.2353   C.3       1 RES1   0.0000
    14 O       99.0139  98.8603  80.4947   O.3       1 RES1   0.0000
    15 C       96.5741  98.9473  80.6079   C.3       1 RES1   0.0000
    16 O       95.5471  98.8733  81.5998   O.3       1 RES1   0.0000
    17 P       93.9828  98.7460  81.2926   P.3       1 RES1   0.0000
    18 O       93.7681  98.5657  79.8292   O.2       1 RES1   0.0000
    19 O       93.3787  97.4904  82.0790   O.3       1 RES1   0.0000
    20 O       93.2646 100.0880  81.7889   O.3       1 RES1   0.0000
    21 P       92.4881 100.7903  80.5767   P.3       1 RES1   0.0000
    22 O       91.4625  99.8475  80.0486   O.2       1 RES1   0.0000
    23 O       93.5409 101.1276  79.4189   O.3       1 RES1   0.0000
    24 O       91.7793 102.1305  81.0963   O.3       1 RES1   0.0000
    25 P       92.1149 103.3920  80.1689   P.3       1 RES1   0.0000
    26 O       91.5972 103.1601  78.7911   O.2       1 RES1   0.0000
    27 O       93.7005 103.5934  80.1005   O.3       1 RES1   0.0000
    28 O       91.4410 104.7091  80.7781   O.3       1 RES1   0.0000
    29 O       97.4174  98.3815  83.6524   O.3       1 RES1   0.0000
    30 O       99.9406  97.6504  83.5512   O.3       1 RES1   0.0000
    31 N      104.1902 102.0922  78.7651   N.pl3     1 RES1   0.0000
    32 H1     101.2507  99.6809  76.4326   H         1 RES1   0.0000
    33 H2     101.9328 100.0126  82.9205   H         1 RES1   0.0000
    34 H3     100.4607  97.5513  81.1684   H         1 RES1   0.0000
    35 H4     100.1475  99.6998  83.2307   H         1 RES1   0.0000
    36 H5      97.9471 100.1094  82.5852   H         1 RES1   0.0000
    37 H6      97.8684  97.3149  81.3094   H         1 RES1   0.0000
    38 H7      96.3046  98.3522  79.7227   H         1 RES1   0.0000
    39 H8      96.7147  99.9990  80.3169   H         1 RES1   0.0000
    40 H9      93.8027  97.4097  82.9253   H         1 RES1   0.0000
    41 H10     94.2908 100.5481  79.4825   H         1 RES1   0.0000
    42 H11     93.9252 104.0715  79.3110   H         1 RES1   0.0000
    43 H12     90.8512 105.0894  80.1379   H         1 RES1   0.0000
    44 H13     96.5576  98.1330  83.3324   H         1 RES1   0.0000
    45 H14     99.3993  97.6505  84.3326   H         1 RES1   0.0000
    46 H15    104.6061 102.4785  77.9058   H         1 RES1   0.0000
    47 H16    104.5596 102.3715  79.6855   H         1 RES1   0.0000
    48 ****   103.0501 101.2025  76.6519   Du        1 RES1   0.0000
    49 ****   100.2835  98.7869  78.4293   Du        1 RES1   0.0000
    50 ****   103.5519 101.4375  81.5203   Du        1 RES1   0.0000
    51 ****    98.9385  99.8393  80.3054   Du        1 RES1   0.0000
    52 ****    99.0821  98.3584  79.6324   Du        1 RES1   0.0000
    53 ****    92.9582  98.9555  79.3909   Du        1 RES1   0.0000
    54 ****    94.4339  98.0547  79.2854   Du        1 RES1   0.0000
    55 ****    93.5358  96.6580  81.5475   Du        1 RES1   0.0000
    56 ****    92.3961  97.6215  82.2103   Du        1 RES1   0.0000
    57 ****    91.2117  99.8722  79.0808   Du        1 RES1   0.0000
    58 ****    91.0248  99.1899  80.6618   Du        1 RES1   0.0000
    59 ****    93.8458 102.0752  79.5144   Du        1 RES1   0.0000
    60 ****    93.1033 101.0064  78.5280   Du        1 RES1   0.0000
    61 ****    91.6523 102.2488  78.3830   Du        1 RES1   0.0000
    62 ****    91.1948 103.9158  78.2744   Du        1 RES1   0.0000
    63 ****    94.1497 102.7001  80.0884   Du        1 RES1   0.0000
    64 ****    94.0058 104.1093  80.9008   Du        1 RES1   0.0000
    65 ****    92.1537 105.3715  81.0091   Du        1 RES1   0.0000
    66 ****    90.9282 104.4700  81.6026   Du        1 RES1   0.0000
    67 ****    97.3139  99.0071  84.4257   Du        1 RES1   0.0000
    68 ****    97.9085  97.5626  83.9495   Du        1 RES1   0.0000
    69 ****   100.9042  97.6398  83.8183   Du        1 RES1   0.0000
    70 ****    99.7359  96.8353  83.0093   Du        1 RES1   0.0000
@<TRIPOS>BOND
     1     1     2   ar
     2     2     3   ar
     3     3     4   ar
     4     4     5   ar
     5     5     6   ar
     6     1     6   ar
     7     5     7   ar
     8     7     8   ar
     9     8     9   ar
    10     4     9   ar
    11     7    10    1
    12    10    11    1
    13    11    12    1
    14    12    13    1
    15    13    14    1
    16    10    14    1
    17    13    15    1
    18    15    16    1
    19    16    17    1
    20    17    18    2
    21    17    19    1
    22    17    20    1
    23    20    21    1
    24    21    22    2
    25    21    23    1
    26    21    24    1
    27    24    25    1
    28    25    26    2
    29    25    27    1
    30    25    28    1
    31    12    29    1
    32    11    30    1
    33     3    31    1
    34     1    32    1
    35     8    33    1
    36    10    34    1
    37    11    35    1
    38    12    36    1
    39    13    37    1
    40    15    38    1
    41    15    39    1
    42    19    40    1
    43    23    41    1
    44    27    42    1
    45    28    43    1
    46    29    44    1
    47    30    45    1
    48    31    46    1
    49    31    47    1
    50     2    48    1
    51     6    49    1
    52     9    50    1
    53    14    51    1
    54    14    52    1
    55    18    53    1
    56    18    54    1
    57    19    55    1
    58    19    56    1
    59    22    57    1
    60    22    58    1
    61    23    59    1
    62    23    60    1
    63    26    61    1
    64    26    62    1
    65    27    63    1
    66    27    64    1
    67    28    65    1
    68    28    66    1
    69    29    67    1
    70    29    68    1
    71    30    69    1
    72    30    70    1
@<TRIPOS>SUBSTRUCTURE
     1 RES1        1 GROUP             0 ****  ****    0  
@<TRIPOS>MOLECULE
ATP|ATP|mol2|1|dock11
    70    72     1     0     0
SMALL
NO_CHARGES
****
Generated from the CSD

@<TRIPOS>ATOM
     1 C      101.5073 100.0776  77.2491   C.ar      1 RES1   0.0000
     2 N      102.5395 100.9396  77.3980   N.ar      1 RES1   0.0000
     3 C      102.9845 101.3080  78.6178   C.ar      1 RES1   0.0000
     4 C      102.3352 100.7618  79.7213   C.ar      1 RES1   0.0000
     5 C      101.2789  99.8831  79.5391   C.ar      1 RES1   0.0000
     6 N      100.8648  99.5392  78.3078   N.ar      1 RES1   0.0000
     7 N      100.8573  99.5337  80.7665   N.ar      1 RES1   0.0000
     8 C      101.6164 100.1551  81.6921   C.ar      1 RES1   0.0000
     9 N      102.5252 100.9136  81.0448   N.ar      1 RES1   0.0000
    10 C       99.8257  98.6884  81.0444   C.3       1 RES1   0.0000
    11 C       98.9049  99.2324  82.1626   C.3       1 RES1   0.0000
    12 C       97.5002  99.1992  81.5277   C.3       1 RES1   0.0000
    13 C       97.6838  98.1953  80.3759   C.3       1 RES1   0.0000
    14 O       98.9788  98.5631  79.8961   O.3       1 RES1   0.0000
    15 C       96.6250  98.3646  79.2694   C.3       1 RES1   0.0000
    16 O       95.3870  97.8487  79.7647   O.3       1 RES1   0.0000
    17 P       94.0084  98.6580  79.8093   P.3       1 RES1   0.0000
    18 O       93.1377  98.2360  78.6762   O.2       1 RES1   0.0000
    19 O       93.2586  98.3715  81.1934   O.3       1 RES1   0.0000
    20 O       94.3409 100.2196  79.6907   O.3       1 RES1   0.0000
    21 P       93.0904 101.0978  80.1711   P.3       1 RES1   0.0000
    22 O       92.8110 100.7981  81.6036   O.2       1 RES1   0.0000
    23 O       91.8145 100.6999  79.2901   O.3       1 RES1   0.0000
    24 O       93.4276 102.6547  79.9965   O.3       1 RES1   0.0000
    25 P       92.2906 103.5945  80.6196   P.3       1 RES1   0.0000
    26 O       92.1212 103.2923  82.0687   O.2       1 RES1   0.0000
    27 O       90.9054 103.3215  79.8672   O.3       1 RES1   0.0000
    28 O       92.6961 105.1316  80.4383   O.3       1 RES1   0.0000
    29 O       96.4923  98.7710  82.4502   O.3       1 RES1   0.0000
    30 O       98.9455  98.3698  83.3059   O.3       1 RES1   0.0000
    31 N      104.0143 102.1688  78.7662   N.pl3     1 RES1   0.0000
    32 H1     101.1862  99.8108  76.2489   H         1 RES1   0.0000
    33 H2     101.5151 100.0643  82.7677   H         1 RES1   0.0000
    34 H3     100.1892  97.6865  81.3199   H         1 RES1   0.0000
    35 H4      99.1662 100.2609  82.4570   H         1 RES1   0.0000
    36 H5      97.2652 100.1917  81.1126   H         1 RES1   0.0000
    37 H6      97.6940  97.1680  80.7718   H         1 RES1   0.0000
    38 H7      96.9342  97.8291  78.3595   H         1 RES1   0.0000
    39 H8      96.5016  99.4345  79.0442   H         1 RES1   0.0000
    40 H9      92.5151  97.8001  81.0413   H         1 RES1   0.0000
    41 H10     91.5544  99.8063  79.4796   H         1 RES1   0.0000
    42 H11     90.3609 104.0984  79.9145   H         1 RES1   0.0000
    43 H12     92.3396 105.4601  79.6214   H         1 RES1   0.0000
    44 H13     95.6310  99.0200  82.1345   H         1 RES1   0.0000
    45 H14     98.3181  98.6550  83.9607   H         1 RES1   0.0000
    46 H15    104.4799 102.5608  77.9355   H         1 RES1   0.0000
    47 H16    104.3351 102.4345  79.7086   H         1 RES1   0.0000
    48 ****   102.9839 101.3132  76.5838   Du        1 RES1   0.0000
    49 ****   100.1035  98.9036  78.1793   Du        1 RES1   0.0000
    50 ****   103.2205 101.4896  81.4747   Du        1 RES1   0.0000
    51 ****    98.9303  99.4342  79.4075   Du        1 RES1   0.0000
    52 ****    99.3323  97.8564  79.2832   Du        1 RES1   0.0000
    53 ****    92.7625  97.3093  78.6521   Du        1 RES1   0.0000
    54 ****    92.9285  98.8794  77.9398   Du        1 RES1   0.0000
    55 ****    92.9401  99.2351  81.5842   Du        1 RES1   0.0000
    56 ****    93.8919  97.9311  81.8299   Du        1 RES1   0.0000
    57 ****    92.0423 100.2079  81.8502   Du        1 RES1   0.0000
    58 ****    93.3921 101.1871  82.3184   Du        1 RES1   0.0000
    59 ****    92.0442 100.7792  78.3201   Du        1 RES1   0.0000
    60 ****    91.0580 101.3176  79.5051   Du        1 RES1   0.0000
    61 ****    92.8676 103.4762  82.7084   Du        1 RES1   0.0000
    62 ****    91.2612 102.9055  82.4017   Du        1 RES1   0.0000
    63 ****    90.4334 102.5564  80.3052   Du        1 RES1   0.0000
    64 ****    91.0848 103.0981  78.9092   Du        1 RES1   0.0000
    65 ****    93.6927 105.2136  80.4237   Du        1 RES1   0.0000
    66 ****    92.3289 105.6650  81.2003   Du        1 RES1   0.0000
    67 ****    96.6548  99.1993  83.3392   Du        1 RES1   0.0000
    68 ****    96.5340  97.7766  82.5468   Du        1 RES1   0.0000
    69 ****    99.8643  98.3889  83.7001   Du        1 RES1   0.0000
    70 ****    98.7238  97.4368  83.0222   Du        1 RES1   0.0000
@<TRIPOS>BOND
     1     1     2   ar
     2     2     3   ar
     3     3     4   ar
     4     4     5   ar
     5     5     6   ar
     6     1     6   ar
     7     5     7   ar
     8     7     8   ar
     9     8     9   ar
    10     4     9   ar
    11     7    10    1
    12    10    11    1
    13    11    12    1
    14    12    13    1
    15    13    14    1
    16    10    14    1
    17    13    15    1
    18    15    16    1
    19    16    17    1
    20    17    18    2
    21    17    19    1
    22    17    20    1
    23    20    21    1
    24    21    22    2
    25    21    23    1
    26    21    24    1
    27    24    25    1
    28    25    26    2
    29    25    27    1
    30    25    28    1
    31    12    29    1
    32    11    30    1
    33     3    31    1
    34     1    32    1
    35     8    33    1
    36    10    34    1
    37    11    35    1
    38    12    36    1
    39    13    37    1
    40    15    38    1
    41    15    39    1
    42    19    40    1
    43    23    41    1
    44    27    42    1
    45    28    43    1
    46    29    44    1
    47    30    45    1
    48    31    46    1
    49    31    47    1
    50     2    48    1
    51     6    49    1
    52     9    50    1
    53    14    51    1
    54    14    52    1
    55    18    53    1
    56    18    54    1
    57    19    55    1
    58    19    56    1
    59    22    57    1
    60    22    58    1
    61    23    59    1
    62    23    60    1
    63    26    61    1
    64    26    62    1
    65    27    63    1
    66    27    64    1
    67    28    65    1
    68    28    66    1
    69    29    67    1
    70    29    68    1
    71    30    69    1
    72    30    70    1
@<TRIPOS>SUBSTRUCTURE
     1 RES1        1 GROUP             0 ****  ****    0  
@<TRIPOS>MOLECULE
ATP|ATP|mol2|1|dock9
    70    72     1     0     0
SMALL
NO_CHARGES
****
Generated from the CSD

@<TRIPOS>ATOM
     1 C      103.1876  97.1319  81.5759   C.ar      1 RES1   0.0000
     2 N      104.0034  98.2060  81.6820   N.ar      1 RES1   0.0000
     3 C      103.5374  99.4656  81.5483   C.ar      1 RES1   0.0000
     4 C      102.1765  99.6148  81.2961   C.ar      1 RES1   0.0000
     5 C      101.3647  98.4964  81.1898   C.ar      1 RES1   0.0000
     6 N      101.8658  97.2574  81.3301   N.ar      1 RES1   0.0000
     7 N      100.1234  98.9482  80.9422   N.ar      1 RES1   0.0000
     8 C      100.1399 100.2963  80.9005   C.ar      1 RES1   0.0000
     9 N      101.4075 100.7044  81.1167   N.ar      1 RES1   0.0000
    10 C       99.0161  98.1764  80.7578   C.3       1 RES1   0.0000
    11 C       98.5105  97.5486  82.0784   C.3       1 RES1   0.0000
    12 C       97.0294  97.9730  82.1414   C.3       1 RES1   0.0000
    13 C       96.7249  98.3214  80.6738   C.3       1 RES1   0.0000
    14 O       97.9308  98.9883  80.2948   O.3       1 RES1   0.0000
    15 C       95.5135  99.2626  80.5285   C.3       1 RES1   0.0000
    16 O       94.3846  98.4693  80.1540   O.3       1 RES1   0.0000
    17 P       93.1899  98.0544  81.1329   P.3       1 RES1   0.0000
    18 O       92.0703  97.4680  80.3437   O.2       1 RES1   0.0000
    19 O       93.7123  96.9799  82.1971   O.3       1 RES1   0.0000
    20 O       92.6897  99.3693  81.8971   O.3       1 RES1   0.0000
    21 P       92.1585 100.4591  80.8502   P.3       1 RES1   0.0000
    22 O       91.7065 101.6666  81.5968   O.2       1 RES1   0.0000
    23 O       90.9192  99.8398  80.0483   O.3       1 RES1   0.0000
    24 O       93.3379 100.8539  79.8396   O.3       1 RES1   0.0000
    25 P       92.9959 102.1697  78.9936   P.3       1 RES1   0.0000
    26 O       91.5939 102.5958  79.2639   O.2       1 RES1   0.0000
    27 O       93.1500 101.8523  77.4332   O.3       1 RES1   0.0000
    28 O       93.9995 103.3497  79.3942   O.3       1 RES1   0.0000
    29 O       96.1803  96.9272  82.6265   O.3       1 RES1   0.0000
    30 O       98.6079  96.1202  82.0212   O.3       1 RES1   0.0000
    31 N      104.3518 100.5375  81.6536   N.pl3     1 RES1   0.0000
    32 H1     103.6082  96.1396  81.6918   H         1 RES1   0.0000
    33 H2      99.2864 100.9409  80.7231   H         1 RES1   0.0000
    34 H3      99.1975  97.3826  80.0169   H         1 RES1   0.0000
    35 H4      99.0537  97.9285  82.9578   H         1 RES1   0.0000
    36 H5      96.9371  98.8803  82.7585   H         1 RES1   0.0000
    37 H6      96.5918  97.3982  80.0889   H         1 RES1   0.0000
    38 H7      95.7172 100.0332  79.7703   H         1 RES1   0.0000
    39 H8      95.3074  99.7428  81.4968   H         1 RES1   0.0000
    40 H9      93.6225  97.3309  83.0753   H         1 RES1   0.0000
    41 H10     90.3012  99.4502  80.6553   H         1 RES1   0.0000
    42 H11     93.8257 101.1963  77.3087   H         1 RES1   0.0000
    43 H12     94.8314 102.9807  79.6663   H         1 RES1   0.0000
    44 H13     95.5995  97.2617  83.3004   H         1 RES1   0.0000
    45 H14     97.7425  95.7272  82.0191   H         1 RES1   0.0000
    46 H15    105.3557 100.4034  81.8404   H         1 RES1   0.0000
    47 H16    103.9713 101.4891  81.5473   H         1 RES1   0.0000
    48 ****   104.9763  98.0631  81.8640   Du        1 RES1   0.0000
    49 ****   101.2773  96.4523  81.2546   Du        1 RES1   0.0000
    50 ****   101.7217 101.6535  81.1396   Du        1 RES1   0.0000
    51 ****    97.9720  99.8928  80.7195   Du        1 RES1   0.0000
    52 ****    97.9729  99.0848  79.3004   Du        1 RES1   0.0000
    53 ****    91.8851  97.7972  79.4178   Du        1 RES1   0.0000
    54 ****    91.5041  96.7452  80.7399   Du        1 RES1   0.0000
    55 ****    94.6744  96.7746  82.0176   Du        1 RES1   0.0000
    56 ****    93.1721  96.1423  82.1167   Du        1 RES1   0.0000
    57 ****    92.3753 102.2459  82.0627   Du        1 RES1   0.0000
    58 ****    90.7342 101.8978  81.6321   Du        1 RES1   0.0000
    59 ****    91.2504  99.1383  79.4173   Du        1 RES1   0.0000
    60 ****    90.4636 100.5647  79.5316   Du        1 RES1   0.0000
    61 ****    90.8539 102.2893  78.6652   Du        1 RES1   0.0000
    62 ****    91.3930 103.1882  80.0441   Du        1 RES1   0.0000
    63 ****    93.4033 102.6883  76.9465   Du        1 RES1   0.0000
    64 ****    92.2817 101.5085  77.0757   Du        1 RES1   0.0000
    65 ****    93.6078 103.8789  80.1469   Du        1 RES1   0.0000
    66 ****    94.1423 103.9476  78.6055   Du        1 RES1   0.0000
    67 ****    96.7437  96.1952  83.0096   Du        1 RES1   0.0000
    68 ****    95.6350  96.5667  81.8697   Du        1 RES1   0.0000
    69 ****    99.1161  95.7929  82.8179   Du        1 RES1   0.0000
    70 ****    99.0911  95.8566  81.1863   Du        1 RES1   0.0000
@<TRIPOS>BOND
     1     1     2   ar
     2     2     3   ar
     3     3     4   ar
     4     4     5   ar
     5     5     6   ar
     6     1     6   ar
     7     5     7   ar
     8     7     8   ar
     9     8     9   ar
    10     4     9   ar
    11     7    10    1
    12    10    11    1
    13    11    12    1
    14    12    13    1
    15    13    14    1
    16    10    14    1
    17    13    15    1
    18    15    16    1
    19    16    17    1
    20    17    18    2
    21    17    19    1
    22    17    20    1
    23    20    21    1
    24    21    22    2
    25    21    23    1
    26    21    24    1
    27    24    25    1
    28    25    26    2
    29    25    27    1
    30    25    28    1
    31    12    29    1
    32    11    30    1
    33     3    31    1
    34     1    32    1
    35     8    33    1
    36    10    34    1
    37    11    35    1
    38    12    36    1
    39    13    37    1
    40    15    38    1
    41    15    39    1
    42    19    40    1
    43    23    41    1
    44    27    42    1
    45    28    43    1
    46    29    44    1
    47    30    45    1
    48    31    46    1
    49    31    47    1
    50     2    48    1
    51     6    49    1
    52     9    50    1
    53    14    51    1
    54    14    52    1
    55    18    53    1
    56    18    54    1
    57    19    55    1
    58    19    56    1
    59    22    57    1
    60    22    58    1
    61    23    59    1
    62    23    60    1
    63    26    61    1
    64    26    62    1
    65    27    63    1
    66    27    64    1
    67    28    65    1
    68    28    66    1
    69    29    67    1
    70    29    68    1
    71    30    69    1
    72    30    70    1
@<TRIPOS>SUBSTRUCTURE
     1 RES1        1 GROUP             0 ****  ****    0  
@<TRIPOS>MOLECULE
ATP|ATP|mol2|1|dock8
    70    72     1     0     0
SMALL
NO_CHARGES
****
Generated from the CSD

@<TRIPOS>ATOM
     1 C      101.9917  99.3107  81.3597   C.ar      1 RES1   0.0000
     2 N      102.6813  98.2115  81.7426   N.ar      1 RES1   0.0000
     3 C      102.0988  96.9955  81.8046   C.ar      1 RES1   0.0000
     4 C      100.7532  96.9186  81.4563   C.ar      1 RES1   0.0000
     5 C      100.0708  98.0616  81.0702   C.ar      1 RES1   0.0000
     6 N      100.6859  99.2553  81.0200   N.ar      1 RES1   0.0000
     7 N       98.8094  97.6812  80.8047   N.ar      1 RES1   0.0000
     8 C       98.6932  96.3523  81.0041   C.ar      1 RES1   0.0000
     9 N       99.8927  95.8852  81.4082   N.ar      1 RES1   0.0000
    10 C       97.7984  98.4998  80.4000   C.3       1 RES1   0.0000
    11 C       97.2455  98.1077  79.0091   C.3       1 RES1   0.0000
    12 C       95.7312  97.9457  79.2501   C.3       1 RES1   0.0000
    13 C       95.5187  98.7402  80.5508   C.3       1 RES1   0.0000
    14 O       96.6842  98.3708  81.2908   O.3       1 RES1   0.0000
    15 C       94.2409  98.3167  81.3005   C.3       1 RES1   0.0000
    16 O       93.1234  98.5918  80.4523   O.3       1 RES1   0.0000
    17 P       92.3520  99.9907  80.3765   P.3       1 RES1   0.0000
    18 O       90.8811  99.7608  80.4388   O.2       1 RES1   0.0000
    19 O       92.7987 100.9206  81.5995   O.3       1 RES1   0.0000
    20 O       92.7360 100.6995  78.9933   O.3       1 RES1   0.0000
    21 P       92.3272 102.2480  79.0236   P.3       1 RES1   0.0000
    22 O       90.8691 102.3575  79.3099   O.2       1 RES1   0.0000
    23 O       92.6328 102.8881  77.5886   O.3       1 RES1   0.0000
    24 O       93.1639 103.0031  80.1629   O.3       1 RES1   0.0000
    25 P       92.7676 104.5501  80.2807   P.3       1 RES1   0.0000
    26 O       91.6608 104.8634  79.3336   O.2       1 RES1   0.0000
    27 O       94.0364 105.4524  79.9127   O.3       1 RES1   0.0000
    28 O       92.3010 104.8795  81.7753   O.3       1 RES1   0.0000
    29 O       94.9462  98.4693  78.1732   O.3       1 RES1   0.0000
    30 O       97.4806  99.1590  78.0644   O.3       1 RES1   0.0000
    31 N      102.7871  95.8987  82.1873   N.pl3     1 RES1   0.0000
    32 H1     102.5032 100.2657  81.3245   H         1 RES1   0.0000
    33 H2      97.7948  95.7613  80.8663   H         1 RES1   0.0000
    34 H3      98.1144  99.5542  80.3883   H         1 RES1   0.0000
    35 H4      97.6757  97.1644  78.6380   H         1 RES1   0.0000
    36 H5      95.5032  96.8835  79.4302   H         1 RES1   0.0000
    37 H6      95.5217  99.8200  80.3355   H         1 RES1   0.0000
    38 H7      94.1547  98.8665  82.2494   H         1 RES1   0.0000
    39 H8      94.2786  97.2357  81.5023   H         1 RES1   0.0000
    40 H9      92.6880 101.8339  81.3629   H         1 RES1   0.0000
    41 H10     91.8530 103.3104  77.2482   H         1 RES1   0.0000
    42 H11     93.7681 106.3605  79.8372   H         1 RES1   0.0000
    43 H12     92.9382 105.4501  82.1887   H         1 RES1   0.0000
    44 H13     94.7799  99.3954  78.3082   H         1 RES1   0.0000
    45 H14     97.7689  99.9481  78.5092   H         1 RES1   0.0000
    46 H15    103.7820  95.9792  82.4407   H         1 RES1   0.0000
    47 H16    102.3192  94.9816  82.2266   H         1 RES1   0.0000
    48 ****   103.6470  98.3022  81.9858   Du        1 RES1   0.0000
    49 ****   100.1914 100.0779  80.7394   Du        1 RES1   0.0000
    50 ****   100.1056  94.9344  81.6332   Du        1 RES1   0.0000
    51 ****    96.6051  97.4260  81.6085   Du        1 RES1   0.0000
    52 ****    96.7998  98.9782  82.0767   Du        1 RES1   0.0000
    53 ****    90.5255  98.8799  80.7511   Du        1 RES1   0.0000
    54 ****    90.2495 100.4875  80.1684   Du        1 RES1   0.0000
    55 ****    93.7595 100.7470  81.8157   Du        1 RES1   0.0000
    56 ****    92.2345 100.7131  82.3986   Du        1 RES1   0.0000
    57 ****    90.5496 102.4371  80.2541   Du        1 RES1   0.0000
    58 ****    90.2101 102.3515  78.5579   Du        1 RES1   0.0000
    59 ****    92.9204 102.1667  76.9587   Du        1 RES1   0.0000
    60 ****    93.3639 103.5646  77.6767   Du        1 RES1   0.0000
    61 ****    90.7354 105.0180  79.6796   Du        1 RES1   0.0000
    62 ****    91.8434 104.9190  78.3520   Du        1 RES1   0.0000
    63 ****    94.4226 105.1455  79.0428   Du        1 RES1   0.0000
    64 ****    94.7259 105.3672  80.6319   Du        1 RES1   0.0000
    65 ****    92.2279 104.0292  82.2964   Du        1 RES1   0.0000
    66 ****    91.4109 105.3347  81.7536   Du        1 RES1   0.0000
    67 ****    94.0750  97.9800  78.1311   Du        1 RES1   0.0000
    68 ****    95.4405  98.3444  77.3130   Du        1 RES1   0.0000
    69 ****    96.6338  99.3514  77.5687   Du        1 RES1   0.0000
    70 ****    98.1865  98.8689  77.4182   Du        1 RES1   0.0000
@<TRIPOS>BOND
     1     1     2   ar
     2     2     3   ar
     3     3     4   ar
     4     4     5   ar
     5     5     6   ar
     6     1     6   ar
     7     5     7   ar
     8     7     8   ar
     9     8     9   ar
    10     4     9   ar
    11     7    10    1
    12    10    11    1
    13    11    12    1
    14    12    13    1
    15    13    14    1
    16    10    14    1
    17    13    15    1
    18    15    16    1
    19    16    17    1
    20    17    18    2
    21    17    19    1
    22    17    20    1
    23    20    21    1
    24    21    22    2
    25    21    23    1
    26    21    24    1
    27    24    25    1
    28    25    26    2
    29    25    27    1
    30    25    28    1
    31    12    29    1
    32    11    30    1
    33     3    31    1
    34     1    32    1
    35     8    33    1
    36    10    34    1
    37    11    35    1
    38    12    36    1
    39    13    37    1
    40    15    38    1
    41    15    39    1
    42    19    40    1
    43    23    41    1
    44    27    42    1
    45    28    43    1
    46    29    44    1
    47    30    45    1
    48    31    46    1
    49    31    47    1
    50     2    48    1
    51     6    49    1
    52     9    50    1
    53    14    51    1
    54    14    52    1
    55    18    53    1
    56    18    54    1
    57    19    55    1
    58    19    56    1
    59    22    57    1
    60    22    58    1
    61    23    59    1
    62    23    60    1
    63    26    61    1
    64    26    62    1
    65    27    63    1
    66    27    64    1
    67    28    65    1
    68    28    66    1
    69    29    67    1
    70    29    68    1
    71    30    69    1
    72    30    70    1
@<TRIPOS>SUBSTRUCTURE
     1 RES1        1 GROUP             0 ****  ****    0  
@<TRIPOS>MOLECULE
ATP|ATP|mol2|1|dock2
    70    72     1     0     0
SMALL
NO_CHARGES
****
Generated from the CSD

@<TRIPOS>ATOM
     1 C      102.9517 101.6531  80.7128   C.ar      1 RES1   0.0000
     2 N      103.4663 101.8502  79.4771   N.ar      1 RES1   0.0000
     3 C      103.0860 101.0979  78.4230   C.ar      1 RES1   0.0000
     4 C      102.1380 100.1067  78.6605   C.ar      1 RES1   0.0000
     5 C      101.6298  99.9254  79.9372   C.ar      1 RES1   0.0000
     6 N      102.0327 100.6956  80.9620   N.ar      1 RES1   0.0000
     7 N      100.7537  98.9092  79.8582   N.ar      1 RES1   0.0000
     8 C      100.6983  98.4664  78.5854   C.ar      1 RES1   0.0000
     9 N      101.5547  99.2050  77.8496   N.ar      1 RES1   0.0000
    10 C      100.0318  98.3967  80.8937   C.3       1 RES1   0.0000
    11 C       99.7512  99.4493  81.9924   C.3       1 RES1   0.0000
    12 C       98.2189  99.4049  82.1584   C.3       1 RES1   0.0000
    13 C       97.8631  98.0331  81.5587   C.3       1 RES1   0.0000
    14 O       98.7384  97.9925  80.4297   O.3       1 RES1   0.0000
    15 C       96.3915  97.9474  81.1101   C.3       1 RES1   0.0000
    16 O       96.3751  97.5806  79.7284   O.3       1 RES1   0.0000
    17 P       95.2439  98.0045  78.6804   P.3       1 RES1   0.0000
    18 O       95.8751  98.5961  77.4672   O.2       1 RES1   0.0000
    19 O       94.3861  96.7201  78.2628   O.3       1 RES1   0.0000
    20 O       94.2910  99.0831  79.3817   O.3       1 RES1   0.0000
    21 P       92.7886  98.9373  78.8459   P.3       1 RES1   0.0000
    22 O       92.2576  97.6056  79.2517   O.2       1 RES1   0.0000
    23 O       92.8011  99.0358  77.2482   O.3       1 RES1   0.0000
    24 O       91.8792 100.0994  79.4710   O.3       1 RES1   0.0000
    25 P       91.7415  99.9717  81.0613   P.3       1 RES1   0.0000
    26 O       90.9527 101.1174  81.5953   O.2       1 RES1   0.0000
    27 O       93.1978  99.9909  81.7232   O.3       1 RES1   0.0000
    28 O       91.0096  98.5989  81.4351   O.3       1 RES1   0.0000
    29 O       97.8132  99.5076  83.5278   O.3       1 RES1   0.0000
    30 O      100.3873  99.0712  83.2194   O.3       1 RES1   0.0000
    31 N      103.6001 101.2944  77.1900   N.pl3     1 RES1   0.0000
    32 H1     103.2875 102.2833  81.5282   H         1 RES1   0.0000
    33 H2     100.0770  97.6583  78.2161   H         1 RES1   0.0000
    34 H3     100.5310  97.5222  81.3385   H         1 RES1   0.0000
    35 H4     100.0737 100.4598  81.6966   H         1 RES1   0.0000
    36 H5      97.7638 100.1995  81.5468   H         1 RES1   0.0000
    37 H6      98.1148  97.2345  82.2737   H         1 RES1   0.0000
    38 H7      95.8887  98.9139  81.2629   H         1 RES1   0.0000
    39 H8      95.8781  97.1680  81.6929   H         1 RES1   0.0000
    40 H9      94.5798  96.0013  78.8530   H         1 RES1   0.0000
    41 H10     93.6271  99.3989  76.9513   H         1 RES1   0.0000
    42 H11     93.8563  99.9253  81.0417   H         1 RES1   0.0000
    43 H12     91.1881  98.3803  82.3421   H         1 RES1   0.0000
    44 H13     97.3465  98.7229  83.7917   H         1 RES1   0.0000
    45 H14     99.7547  99.0463  83.9285   H         1 RES1   0.0000
    46 H15    104.3007 102.0338  77.0374   H         1 RES1   0.0000
    47 H16    103.2934 100.7064  76.4015   H         1 RES1   0.0000
    48 ****   104.1454 102.5715  79.3414   Du        1 RES1   0.0000
    49 ****   101.6630 100.5636  81.8818   Du        1 RES1   0.0000
    50 ****   101.7264  99.1004  76.8700   Du        1 RES1   0.0000
    51 ****    98.4154  98.6198  79.7210   Du        1 RES1   0.0000
    52 ****    98.7800  97.0645  80.0596   Du        1 RES1   0.0000
    53 ****    96.8709  98.6088  77.3774   Du        1 RES1   0.0000
    54 ****    95.3028  98.9804  76.7428   Du        1 RES1   0.0000
    55 ****    94.6189  96.4543  77.3273   Du        1 RES1   0.0000
    56 ****    93.4119  96.9395  78.3143   Du        1 RES1   0.0000
    57 ****    92.7323  96.7714  78.9710   Du        1 RES1   0.0000
    58 ****    91.4267  97.5461  79.8048   Du        1 RES1   0.0000
    59 ****    92.0525  99.6264  76.9470   Du        1 RES1   0.0000
    60 ****    92.6822  98.1223  76.8592   Du        1 RES1   0.0000
    61 ****    91.4226 101.9262  81.9491   Du        1 RES1   0.0000
    62 ****    89.9535 101.0777  81.5998   Du        1 RES1   0.0000
    63 ****    93.2891  99.2175  82.3505   Du        1 RES1   0.0000
    64 ****    93.3236 100.8455  82.2271   Du        1 RES1   0.0000
    65 ****    91.3498  97.8682  80.8432   Du        1 RES1   0.0000
    66 ****    90.0233  98.7012  81.3051   Du        1 RES1   0.0000
    67 ****    97.2137 100.3006  83.6360   Du        1 RES1   0.0000
    68 ****    98.6224  99.6203  84.1044   Du        1 RES1   0.0000
    69 ****   101.1012  99.7363  83.4386   Du        1 RES1   0.0000
    70 ****   100.7971  98.1654  83.1121   Du        1 RES1   0.0000
@<TRIPOS>BOND
     1     1     2   ar
     2     2     3   ar
     3     3     4   ar
     4     4     5   ar
     5     5     6   ar
     6     1     6   ar
     7     5     7   ar
     8     7     8   ar
     9     8     9   ar
    10     4     9   ar
    11     7    10    1
    12    10    11    1
    13    11    12    1
    14    12    13    1
    15    13    14    1
    16    10    14    1
    17    13    15    1
    18    15    16    1
    19    16    17    1
    20    17    18    2
    21    17    19    1
    22    17    20    1
    23    20    21    1
    24    21    22    2
    25    21    23    1
    26    21    24    1
    27    24    25    1
    28    25    26    2
    29    25    27    1
    30    25    28    1
    31    12    29    1
    32    11    30    1
    33     3    31    1
    34     1    32    1
    35     8    33    1
    36    10    34    1
    37    11    35    1
    38    12    36    1
    39    13    37    1
    40    15    38    1
    41    15    39    1
    42    19    40    1
    43    23    41    1
    44    27    42    1
    45    28    43    1
    46    29    44    1
    47    30    45    1
    48    31    46    1
    49    31    47    1
    50     2    48    1
    51     6    49    1
    52     9    50    1
    53    14    51    1
    54    14    52    1
    55    18    53    1
    56    18    54    1
    57    19    55    1
    58    19    56    1
    59    22    57    1
    60    22    58    1
    61    23    59    1
    62    23    60    1
    63    26    61    1
    64    26    62    1
    65    27    63    1
    66    27    64    1
    67    28    65    1
    68    28    66    1
    69    29    67    1
    70    29    68    1
    71    30    69    1
    72    30    70    1
@<TRIPOS>SUBSTRUCTURE
     1 RES1        1 GROUP             0 ****  ****    0  
@<TRIPOS>MOLECULE
ATP|ATP|mol2|1|dock13
    70    72     1     0     0
SMALL
NO_CHARGES
****
Generated from the CSD

@<TRIPOS>ATOM
     1 C      101.6740  97.0813  81.8030   C.ar      1 RES1   0.0000
     2 N      102.4219  98.2078  81.8516   N.ar      1 RES1   0.0000
     3 C      101.8961  99.4197  81.5749   C.ar      1 RES1   0.0000
     4 C      100.5466  99.4631  81.2363   C.ar      1 RES1   0.0000
     5 C       99.8052  98.2928  81.1919   C.ar      1 RES1   0.0000
     6 N      100.3643  97.1041  81.4751   N.ar      1 RES1   0.0000
     7 N       98.5579  98.6448  80.8358   N.ar      1 RES1   0.0000
     8 C       98.5028  99.9820  80.6684   C.ar      1 RES1   0.0000
     9 N       99.7310 100.4837  80.9136   N.ar      1 RES1   0.0000
    10 C       97.5076  97.7941  80.6651   C.3       1 RES1   0.0000
    11 C       96.2984  98.1670  81.5554   C.3       1 RES1   0.0000
    12 C       95.1299  98.2812  80.5559   C.3       1 RES1   0.0000
    13 C       95.6510  97.4817  79.3486   C.3       1 RES1   0.0000
    14 O       97.0207  97.8886  79.3214   O.3       1 RES1   0.0000
    15 C       94.9428  97.8653  78.0350   C.3       1 RES1   0.0000
    16 O       93.5362  97.7017  78.2314   O.3       1 RES1   0.0000
    17 P       92.4093  98.1012  77.1693   P.3       1 RES1   0.0000
    18 O       91.6082  99.2452  77.6886   O.2       1 RES1   0.0000
    19 O       93.0951  98.5156  75.7844   O.3       1 RES1   0.0000
    20 O       91.4629  96.8301  76.9419   O.3       1 RES1   0.0000
    21 P       92.2500  95.6777  76.1556   P.3       1 RES1   0.0000
    22 O       93.4823  95.3282  76.9166   O.2       1 RES1   0.0000
    23 O       92.6610  96.2304  74.7106   O.3       1 RES1   0.0000
    24 O       91.3124  94.3857  76.0147   O.3       1 RES1   0.0000
    25 P       91.8796  93.1331  76.8352   P.3       1 RES1   0.0000
    26 O       90.8987  92.0123  76.7913   O.2       1 RES1   0.0000
    27 O       92.1131  93.5590  78.3595   O.3       1 RES1   0.0000
    28 O       93.2684  92.6525  76.2025   O.3       1 RES1   0.0000
    29 O       93.9124  97.7317  81.0716   O.3       1 RES1   0.0000
    30 O       96.0337  97.1227  82.5001   O.3       1 RES1   0.0000
    31 N      102.6427 100.5437  81.6228   N.pl3     1 RES1   0.0000
    32 H1     102.1408  96.1308  82.0345   H         1 RES1   0.0000
    33 H2      97.6273 100.5553  80.3850   H         1 RES1   0.0000
    34 H3      97.7998  96.7502  80.8568   H         1 RES1   0.0000
    35 H4      96.4448  99.1231  82.0818   H         1 RES1   0.0000
    36 H5      95.0006  99.3358  80.2666   H         1 RES1   0.0000
    37 H6      95.5708  96.4023  79.5507   H         1 RES1   0.0000
    38 H7      95.2978  97.2300  77.2100   H         1 RES1   0.0000
    39 H8      95.1510  98.9207  77.8040   H         1 RES1   0.0000
    40 H9      93.8550  99.0597  75.9548   H         1 RES1   0.0000
    41 H10     91.8846  96.4880  74.2281   H         1 RES1   0.0000
    42 H11     91.2760  93.7459  78.7678   H         1 RES1   0.0000
    43 H12     93.1003  92.0521  75.4858   H         1 RES1   0.0000
    44 H13     94.0548  97.3774  81.9420   H         1 RES1   0.0000
    45 H14     95.3259  97.3728  83.0833   H         1 RES1   0.0000
    46 H15    103.6395 100.4879  81.8756   H         1 RES1   0.0000
    47 H16    102.2176 101.4571  81.4069   H         1 RES1   0.0000
    48 ****   103.3885  98.1408  82.0988   Du        1 RES1   0.0000
    49 ****    99.8265  96.2616  81.4440   Du        1 RES1   0.0000
    50 ****    99.9906 101.4481  80.8641   Du        1 RES1   0.0000
    51 ****    97.0934  98.8309  78.9944   Du        1 RES1   0.0000
    52 ****    97.5470  97.2861  78.7214   Du        1 RES1   0.0000
    53 ****    90.8186  99.5777  77.1728   Du        1 RES1   0.0000
    54 ****    91.8601  99.6805  78.5530   Du        1 RES1   0.0000
    55 ****    92.4392  99.0252  75.2276   Du        1 RES1   0.0000
    56 ****    93.3792  97.6916  75.2942   Du        1 RES1   0.0000
    57 ****    93.4195  94.7567  77.7348   Du        1 RES1   0.0000
    58 ****    94.3722  95.6651  76.6092   Du        1 RES1   0.0000
    59 ****    93.1416  95.5131  74.2062   Du        1 RES1   0.0000
    60 ****    93.2621  97.0224  74.8178   Du        1 RES1   0.0000
    61 ****    90.7243  91.5340  75.9307   Du        1 RES1   0.0000
    62 ****    90.4149  91.7386  77.6225   Du        1 RES1   0.0000
    63 ****    92.6899  94.3752  78.3929   Du        1 RES1   0.0000
    64 ****    92.5634  92.8123  78.8490   Du        1 RES1   0.0000
    65 ****    93.8117  92.1905  76.9035   Du        1 RES1   0.0000
    66 ****    93.7712  93.4465  75.8607   Du        1 RES1   0.0000
    67 ****    93.5966  97.0018  80.4655   Du        1 RES1   0.0000
    68 ****    93.2188  98.4506  81.1171   Du        1 RES1   0.0000
    69 ****    96.8582  96.9494  83.0386   Du        1 RES1   0.0000
    70 ****    95.7762  96.2912  82.0078   Du        1 RES1   0.0000
@<TRIPOS>BOND
     1     1     2   ar
     2     2     3   ar
     3     3     4   ar
     4     4     5   ar
     5     5     6   ar
     6     1     6   ar
     7     5     7   ar
     8     7     8   ar
     9     8     9   ar
    10     4     9   ar
    11     7    10    1
    12    10    11    1
    13    11    12    1
    14    12    13    1
    15    13    14    1
    16    10    14    1
    17    13    15    1
    18    15    16    1
    19    16    17    1
    20    17    18    2
    21    17    19    1
    22    17    20    1
    23    20    21    1
    24    21    22    2
    25    21    23    1
    26    21    24    1
    27    24    25    1
    28    25    26    2
    29    25    27    1
    30    25    28    1
    31    12    29    1
    32    11    30    1
    33     3    31    1
    34     1    32    1
    35     8    33    1
    36    10    34    1
    37    11    35    1
    38    12    36    1
    39    13    37    1
    40    15    38    1
    41    15    39    1
    42    19    40    1
    43    23    41    1
    44    27    42    1
    45    28    43    1
    46    29    44    1
    47    30    45    1
    48    31    46    1
    49    31    47    1
    50     2    48    1
    51     6    49    1
    52     9    50    1
    53    14    51    1
    54    14    52    1
    55    18    53    1
    56    18    54    1
    57    19    55    1
    58    19    56    1
    59    22    57    1
    60    22    58    1
    61    23    59    1
    62    23    60    1
    63    26    61    1
    64    26    62    1
    65    27    63    1
    66    27    64    1
    67    28    65    1
    68    28    66    1
    69    29    67    1
    70    29    68    1
    71    30    69    1
    72    30    70    1
@<TRIPOS>SUBSTRUCTURE
     1 RES1        1 GROUP             0 ****  ****    0  
