MolPort-009-490-458 CSC026265184 MCULE-8153805116 PubChem-42893758


 23 25  0  0  0  0  0  0  0  0999 V2000
   14.4945  -15.4833   21.5318 C   0  0  0  0  0
   15.7671  -14.6603   21.5883 C   0  0  0  0  0
   17.2179  -14.3050   23.5639 C   0  0  0  0  0
   18.3090  -14.9557   22.9647 C   0  0  0  0  0
   19.5201  -15.0775   23.6521 C   0  0  0  0  0
   19.6478  -14.5507   24.9403 C   0  0  0  0  0
   18.5651  -13.9022   25.5409 C   0  0  0  0  0
   17.3537  -13.7802   24.8535 C   0  0  0  0  0
   15.7624  -13.5561   20.5730 C   0  0  0  0  0
   14.3589  -11.8142   21.8681 C   0  0  0  0  0
   14.3073  -10.4422   22.2064 C   0  0  0  0  0
   13.4057   -9.9682   23.1773 C   0  0  0  0  0
   12.5660  -10.9005   23.7786 C   0  0  0  0  0
   11.1317  -11.9228   24.9168 C   0  0  0  0  0
   12.5973  -12.2207   23.4472 C   0  0  0  0  0
   13.4746  -12.7211   22.4900 C   0  0  0  0  0
   15.9950  -14.1651   22.9026 O   0  0  0  0  0
   16.2764  -13.7864   19.4479 O   0  0  0  0  0
   10.2117  -12.1524   25.7442 O   0  0  0  0  0
   20.8211  -14.6685   25.6067 F   0  0  0  0  0
   15.2730  -12.2329   20.8461 N   0  0  0  0  0
   11.6360  -10.6779   24.7182 N   0  0  0  0  0
   11.6888  -12.9023   24.1596 N   0  0  0  0  0
  2  1  1  0  0  0
  2 17  1  0  0  0
  2  9  1  0  0  0
  3 17  1  0  0  0
  4  5  1  0  0  0
  6 20  1  0  0  0
  6  7  1  0  0  0
  8  3  1  0  0  0
  9 21  1  0  0  0
 11 12  1  0  0  0
 13 22  1  0  0  0
 14 23  1  0  0  0
 15 13  1  0  0  0
 16 10  1  0  0  0
 21 10  1  0  0  0
 22 14  1  0  0  0
 23 15  1  0  0  0
  3  4  2  0  0  0
  5  6  2  0  0  0
  7  8  2  0  0  0
  9 18  2  0  0  0
 10 11  2  0  0  0
 12 13  2  0  0  0
 14 19  2  0  0  0
 15 16  2  0  0  0
M  END
> <rmsd>
0.666994393

$$$$
MolPort-002-166-624 CHEMBL3210100 PubChem-9567177 ZINC000005030045 ZINC05030045


 25 28  0  0  0  0  0  0  0  0999 V2000
   21.4843  -14.8015   26.0669 C   0  0  0  0  0
   21.1058  -16.0728   25.3295 C   0  0  0  0  0
   20.5547  -15.7540   23.9816 C   0  0  0  0  0
   19.3233  -15.0796   23.8592 C   0  0  0  0  0
   18.8608  -14.8292   22.5719 C   0  0  0  0  0
   19.5535  -15.2175   21.4392 C   0  0  0  0  0
   17.8020  -14.2540   20.7441 C   0  0  0  0  0
   17.7394  -14.2128   22.1028 C   0  0  0  0  0
   15.7606  -13.1284   20.6245 C   0  0  0  0  0
   13.2971  -11.7639   21.5909 C   0  0  0  0  0
   12.0795  -11.0897   22.0517 C   0  0  0  0  0
   11.8544  -10.9581   23.4261 C   0  0  0  0  0
   10.7014  -10.3193   23.8926 C   0  0  0  0  0
    9.7685   -9.8095   22.9849 C   0  0  0  0  0
    9.9882   -9.9380   21.6104 C   0  0  0  0  0
   11.1411  -10.5767   21.1438 C   0  0  0  0  0
   20.7684  -15.8914   21.5399 C   0  0  0  0  0
   21.2656  -16.1600   22.8290 C   0  0  0  0  0
   18.9166  -14.8719   20.2904 N   0  0  0  0  0
   16.6998  -13.6362   22.7419 N   0  0  0  0  0
   15.7223  -13.1005   21.9995 N   0  0  0  0  0
   14.7076  -12.5514   19.8370 N   0  0  0  0  0
   13.5532  -11.9119   20.3296 N   0  0  0  0  0
   16.8188  -13.7155   19.9869 N   0  0  0  0  0
   10.4830  -10.1915   25.2573 O   0  0  0  0  0
  1  2  1  0  0  0
  2  3  1  0  0  0
  4  5  1  0  0  0
  6 19  1  0  0  0
  6 17  1  0  0  0
  7 24  1  0  0  0
  8 20  1  0  0  0
  8  5  1  0  0  0
  9 21  1  0  0  0
  9 22  1  0  0  0
 10 11  1  0  0  0
 12 13  1  0  0  0
 13 25  1  0  0  0
 14 15  1  0  0  0
 16 11  1  0  0  0
 18  3  1  0  0  0
 19  7  1  0  0  0
 22 23  1  0  0  0
  3  4  2  0  0  0
  5  6  2  0  0  0
  7  8  2  0  0  0
  9 24  2  0  0  0
 10 23  2  0  0  0
 11 12  2  0  0  0
 13 14  2  0  0  0
 15 16  2  0  0  0
 17 18  2  0  0  0
 20 21  2  0  0  0
M  END
> <rmsd>
0.556465387

$$$$
MolPort-044-728-743


 27 30  0  0  0  0  0  0  0  0999 V2000
   13.9216  -15.1895   22.0887 C   0  0  0  0  0
   13.9034  -13.7741   20.0414 C   0  0  0  0  0
   13.7886  -12.2490   20.1378 C   0  0  0  0  0
   13.0396  -11.7875   21.3503 C   0  0  0  0  0
   11.7621  -11.2387   21.1945 C   0  0  0  0  0
   11.0490  -10.7881   22.3097 C   0  0  0  0  0
   11.6136  -10.8808   23.5852 C   0  0  0  0  0
   12.8929  -11.4208   23.7461 C   0  0  0  0  0
   13.6059  -11.8709   22.6315 C   0  0  0  0  0
   16.0892  -14.2851   21.1857 C   0  0  0  0  0
   16.8416  -14.4381   22.4483 C   0  0  0  0  0
   18.4112  -14.6491   23.9304 C   0  0  0  0  0
   18.2106  -14.5281   22.5902 C   0  0  0  0  0
   19.3169  -14.6020   21.5814 C   0  0  0  0  0
   20.8312  -14.7428   23.5973 C   0  0  0  0  0
   22.1359  -14.8503   24.0880 C   0  0  0  0  0
   22.3586  -15.0083   25.4604 C   0  0  0  0  0
   21.2777  -15.0553   26.3481 C   0  0  0  0  0
   19.9695  -14.9433   25.8675 C   0  0  0  0  0
   19.7480  -14.7879   24.4956 C   0  0  0  0  0
   14.6526  -14.3463   21.1558 N   0  0  0  0  0
   16.2781  -14.4829   23.6775 N   0  0  0  0  0
   17.2375  -14.6153   24.5866 N   0  0  0  0  0
   10.9046  -10.4349   24.6919 O   0  0  0  0  0
   15.0411  -11.6366   20.0615 O   0  0  0  0  0
   16.7231  -14.0765   20.1157 O   0  0  0  0  0
   20.6127  -14.5733   22.2136 O   0  0  0  0  0
  1 21  1  0  0  0
  2 21  1  0  0  0
  2  3  1  0  0  0
  3  4  1  0  0  0
  3 25  1  0  0  0
  5  6  1  0  0  0
  7  8  1  0  0  0
  7 24  1  0  0  0
  9  4  1  0  0  0
 10 11  1  0  0  0
 13 11  1  0  0  0
 14 13  1  0  0  0
 14 27  1  0  0  0
 15 27  1  0  0  0
 16 17  1  0  0  0
 18 19  1  0  0  0
 20 12  1  0  0  0
 20 15  1  0  0  0
 21 10  1  0  0  0
 23 22  1  0  0  0
 23 12  1  0  0  0
  4  5  2  0  0  0
  6  7  2  0  0  0
  8  9  2  0  0  0
 10 26  2  0  0  0
 11 22  2  0  0  0
 12 13  2  0  0  0
 15 16  2  0  0  0
 17 18  2  0  0  0
 19 20  2  0  0  0
M  END
> <rmsd>
0.524269104

$$$$
MolPort-005-978-767 PubChem-17603704


 28 32  0  0  0  0  0  0  0  0999 V2000
   14.4400  -10.1776   20.6447 C   0  0  0  0  0
   15.3570  -11.3365   20.8192 C   0  0  0  0  0
   16.1319  -11.6121   21.9256 C   0  0  0  0  0
   15.9871  -11.3433   23.4038 C   0  0  0  0  0
   16.8400  -12.7707   25.3976 C   0  0  0  0  0
   18.0974  -11.9705   25.7185 C   0  0  0  0  0
   19.2830  -12.4992   24.9784 C   0  0  0  0  0
   20.0143  -11.8162   24.0138 C   0  0  0  0  0
   20.9031  -13.7636   24.2096 C   0  0  0  0  0
   21.7103  -14.8900   24.0631 C   0  0  0  0  0
   21.4190  -16.0110   24.8620 C   0  0  0  0  0
   20.3428  -15.9812   25.7756 C   0  0  0  0  0
   19.5446  -14.8304   25.9018 C   0  0  0  0  0
   19.8619  -13.7383   25.0958 C   0  0  0  0  0
   16.8221  -13.5020   22.9502 C   0  0  0  0  0
   16.6232  -12.8470   21.6859 C   0  0  0  0  0
   14.5656  -11.0734   23.8051 C   0  0  0  0  0
   13.5726  -12.0588   23.6842 C   0  0  0  0  0
   12.2545  -11.7762   24.0528 C   0  0  0  0  0
   11.9220  -10.5096   24.5415 C   0  0  0  0  0
   12.9073   -9.5252   24.6611 C   0  0  0  0  0
   14.2261   -9.8068   24.2926 C   0  0  0  0  0
   16.4630  -12.6036   23.9998 N   0  0  0  0  0
   21.0150  -12.6017   23.5401 N   0  0  0  0  0
   16.1491  -13.3472   20.5325 N   0  0  0  0  0
   15.4040  -12.3954   19.9779 N   0  0  0  0  0
   17.2070  -14.6887   23.1215 O   0  0  0  0  0
   10.6130  -10.2290   24.9077 O   0  0  0  0  0
  1  2  1  0  0  0
  4  3  1  0  0  0
  4 23  1  0  0  0
  4 17  1  0  0  0
  5 23  1  0  0  0
  5  6  1  0  0  0
  6  7  1  0  0  0
  8 24  1  0  0  0
 10 11  1  0  0  0
 12 13  1  0  0  0
 14  7  1  0  0  0
 14  9  1  0  0  0
 15 16  1  0  0  0
 16  3  1  0  0  0
 18 19  1  0  0  0
 20 28  1  0  0  0
 20 21  1  0  0  0
 22 17  1  0  0  0
 23 15  1  0  0  0
 24  9  1  0  0  0
 26 25  1  0  0  0
 26  2  1  0  0  0
  2  3  2  0  0  0
  7  8  2  0  0  0
  9 10  2  0  0  0
 11 12  2  0  0  0
 13 14  2  0  0  0
 15 27  2  0  0  0
 16 25  2  0  0  0
 17 18  2  0  0  0
 19 20  2  0  0  0
 21 22  2  0  0  0
M  END
> <rmsd>
0.751432478

$$$$
MolPort-005-950-307 MCULE-7217392723 ZINC000012530140


 31 35  0  0  0  0  0  0  0  0999 V2000
   22.5350  -16.3835   25.6954 F   0  0  0  0  0
   21.4507  -15.6788   25.2927 C   0  0  0  0  0
   20.2098  -16.3112   25.1769 C   0  0  0  0  0
   19.0906  -15.5838   24.7612 C   0  0  0  0  0
   19.2057  -14.2196   24.4589 C   0  0  0  0  0
   20.4538  -13.5917   24.5772 C   0  0  0  0  0
   21.5729  -14.3192   24.9930 C   0  0  0  0  0
   18.0280  -13.4546   24.0207 C   0  0  0  0  0
   16.0909  -12.9197   23.4684 C   0  0  0  0  0
   14.6260  -12.9581   23.1589 C   0  0  0  0  0
   13.9138  -12.1050   24.2272 C   0  0  0  0  0
   12.5830  -11.6194   23.7687 C   0  0  0  0  0
   12.1511  -11.6730   22.4852 C   0  0  0  0  0
   12.9200  -12.2961   21.3758 C   0  0  0  0  0
   15.2312  -12.7370   20.6756 C   0  0  0  0  0
   15.8838  -12.0554   18.2878 C   0  0  0  0  0
   15.5444  -11.2656   17.1834 C   0  0  0  0  0
   16.3239  -11.2983   16.0234 C   0  0  0  0  0
   17.4507  -12.1225   15.9618 C   0  0  0  0  0
   17.7983  -12.9133   17.0600 C   0  0  0  0  0
   17.0179  -12.8795   18.2192 C   0  0  0  0  0
   10.6656  -10.7228   23.6581 C   0  0  0  0  0
   18.0599  -12.1424   23.7111 N   0  0  0  0  0
   16.7955  -13.9892   23.8822 N   0  0  0  0  0
   14.3175  -12.5246   21.7692 N   0  0  0  0  0
   15.0611  -11.9904   19.4606 N   0  0  0  0  0
   10.9317  -11.1230   22.3912 N   0  0  0  0  0
   11.6637  -11.0072   24.5295 N   0  0  0  0  0
   16.8413  -11.8494   23.3753 O   0  0  0  0  0
   16.1521  -13.5931   20.7722 O   0  0  0  0  0
   18.4268  -12.1636   14.5098 Cl  0  0  0  0  0
  2  1  1  0  0  0
  3  4  1  0  0  0
  5  6  1  0  0  0
  5  8  1  0  0  0
  7  2  1  0  0  0
  8 24  1  0  0  0
  9 29  1  0  0  0
 10  9  1  0  0  0
 10 11  1  0  0  0
 10 25  1  0  0  0
 11 12  1  0  0  0
 13 27  1  0  0  0
 14 13  1  0  0  0
 14 25  1  0  0  0
 15 26  1  0  0  0
 17 18  1  0  0  0
 19 31  1  0  0  0
 19 20  1  0  0  0
 21 16  1  0  0  0
 22 28  1  0  0  0
 23 29  1  0  0  0
 25 15  1  0  0  0
 26 16  1  0  0  0
 28 12  1  0  0  0
  2  3  2  0  0  0
  4  5  2  0  0  0
  6  7  2  0  0  0
  8 23  2  0  0  0
  9 24  2  0  0  0
 12 13  2  0  0  0
 15 30  2  0  0  0
 16 17  2  0  0  0
 18 19  2  0  0  0
 20 21  2  0  0  0
 22 27  2  0  0  0
M  END
> <rmsd>
0.8758744

$$$$
MolPort-044-634-313 CSC077895107 PubChem-132330672


 28 31  0  0  0  0  0  0  0  0999 V2000
   17.8803  -16.1994   21.4881 C   0  0  0  0  0
   17.3988  -15.1907   22.4770 C   0  0  0  0  0
   16.6585  -14.0499   22.2359 C   0  0  0  0  0
   16.2019  -13.5285   20.9320 C   0  0  0  0  0
   14.1034  -12.2932   21.7080 C   0  0  0  0  0
   13.6036  -13.3500   22.4831 C   0  0  0  0  0
   12.4877  -13.1631   23.3001 C   0  0  0  0  0
   11.8564  -11.9191   23.3469 C   0  0  0  0  0
   10.6374  -11.7381   24.2028 C   0  0  0  0  0
   10.3253   -9.5548   23.3522 C   0  0  0  0  0
   11.6508   -9.5125   22.5876 C   0  0  0  0  0
   12.3228  -10.8604   22.5426 C   0  0  0  0  0
   13.4504  -11.0521   21.7293 C   0  0  0  0  0
   18.3838  -16.2268   24.5385 C   0  0  0  0  0
   19.7960  -15.7741   24.6882 C   0  0  0  0  0
   20.1642  -14.9773   25.7779 C   0  0  0  0  0
   21.4833  -14.5312   25.9044 C   0  0  0  0  0
   22.4340  -14.8771   24.9392 C   0  0  0  0  0
   22.0653  -15.6666   23.8455 C   0  0  0  0  0
   20.7464  -16.1130   23.7187 C   0  0  0  0  0
   16.7237  -13.9655   19.8729 O   0  0  0  0  0
   15.2278  -12.4810   20.8380 N   0  0  0  0  0
   10.4725  -10.3346   24.5779 N   0  0  0  0  0
   16.4659  -13.4282   23.4193 N   0  0  0  0  0
   17.0546  -14.1682   24.3495 N   0  0  0  0  0
   17.6138  -15.2348   23.8020 N   0  0  0  0  0
   13.9156  -10.0333   20.9610 F   0  0  0  0  0
   23.7117  -14.4450   25.0620 F   0  0  0  0  0
  1  2  1  0  0  0
  3  4  1  0  0  0
  3 24  1  0  0  0
  4 22  1  0  0  0
  6  7  1  0  0  0
  9  8  1  0  0  0
  9 23  1  0  0  0
 10 23  1  0  0  0
 10 11  1  0  0  0
 11 12  1  0  0  0
 12  8  1  0  0  0
 13 27  1  0  0  0
 13  5  1  0  0  0
 14 26  1  0  0  0
 14 15  1  0  0  0
 16 17  1  0  0  0
 18 19  1  0  0  0
 18 28  1  0  0  0
 20 15  1  0  0  0
 22  5  1  0  0  0
 26 25  1  0  0  0
 26  2  1  0  0  0
  2  3  2  0  0  0
  4 21  2  0  0  0
  5  6  2  0  0  0
  7  8  2  0  0  0
 12 13  2  0  0  0
 15 16  2  0  0  0
 17 18  2  0  0  0
 19 20  2  0  0  0
 24 25  2  0  0  0
M  END
> <rmsd>
0.726654947

$$$$
MolPort-005-950-197 MCULE-8690266926 ZINC000015675862


 30 34  0  0  0  0  0  0  0  0999 V2000
   22.8451  -16.5942   25.8235 Cl  0  0  0  0  0
   21.4458  -15.6828   25.3001 C   0  0  0  0  0
   20.2046  -16.3142   25.1827 C   0  0  0  0  0
   19.0868  -15.5860   24.7647 C   0  0  0  0  0
   19.2038  -14.2222   24.4616 C   0  0  0  0  0
   20.4522  -13.5953   24.5815 C   0  0  0  0  0
   21.5699  -14.3235   24.9995 C   0  0  0  0  0
   18.0275  -13.4563   24.0210 C   0  0  0  0  0
   16.0915  -12.9198   23.4664 C   0  0  0  0  0
   14.6265  -12.9565   23.1574 C   0  0  0  0  0
   13.9157  -12.1061   24.2286 C   0  0  0  0  0
   12.5857  -11.6163   23.7722 C   0  0  0  0  0
   12.1526  -11.6660   22.4890 C   0  0  0  0  0
   12.9192  -12.2888   21.3779 C   0  0  0  0  0
   15.2268  -12.7346   20.6724 C   0  0  0  0  0
   15.8931  -12.2105   18.2805 C   0  0  0  0  0
   15.5934  -13.5600   17.6174 C   0  0  0  0  0
   14.1991  -13.5743   16.9920 C   0  0  0  0  0
   14.0657  -12.4430   15.9784 C   0  0  0  0  0
   14.3048  -11.0998   16.6598 C   0  0  0  0  0
   15.6996  -11.0649   17.2841 C   0  0  0  0  0
   10.6701  -10.7155   23.6652 C   0  0  0  0  0
   18.0611  -12.1444   23.7109 N   0  0  0  0  0
   16.7946  -13.9898   23.8814 N   0  0  0  0  0
   14.3170  -12.5198   21.7689 N   0  0  0  0  0
   15.0486  -12.0081   19.4521 N   0  0  0  0  0
   10.9343  -11.1133   22.3971 N   0  0  0  0  0
   11.6682  -11.0039   24.5352 N   0  0  0  0  0
   16.8430  -11.8503   23.3735 O   0  0  0  0  0
   16.1622  -13.5756   20.7679 O   0  0  0  0  0
  2  1  1  0  0  0
  3  4  1  0  0  0
  5  6  1  0  0  0
  5  8  1  0  0  0
  7  2  1  0  0  0
  8 24  1  0  0  0
  9 29  1  0  0  0
 10  9  1  0  0  0
 10 11  1  0  0  0
 10 25  1  0  0  0
 11 12  1  0  0  0
 13 27  1  0  0  0
 14 13  1  0  0  0
 14 25  1  0  0  0
 15 26  1  0  0  0
 16 26  1  0  0  0
 16 17  1  0  0  0
 17 18  1  0  0  0
 18 19  1  0  0  0
 19 20  1  0  0  0
 20 21  1  0  0  0
 21 16  1  0  0  0
 22 28  1  0  0  0
 23 29  1  0  0  0
 25 15  1  0  0  0
 28 12  1  0  0  0
  2  3  2  0  0  0
  4  5  2  0  0  0
  6  7  2  0  0  0
  8 23  2  0  0  0
  9 24  2  0  0  0
 12 13  2  0  0  0
 15 30  2  0  0  0
 22 27  2  0  0  0
M  END
> <rmsd>
0.875908434

$$$$
MolPort-035-741-721 CSC026530426 MCULE-6513748571


 29 32  0  0  0  0  0  0  0  0999 V2000
   19.0323  -14.8715   21.2747 C   0  0  0  0  0
   18.1239  -14.2276   22.2708 C   0  0  0  0  0
   19.4181  -14.6495   24.3957 C   0  0  0  0  0
   19.4192  -14.4564   25.7864 C   0  0  0  0  0
   20.4739  -14.9324   26.5707 C   0  0  0  0  0
   21.5399  -15.6076   25.9717 C   0  0  0  0  0
   22.6613  -16.1140   26.8047 C   0  0  0  0  0
   21.5511  -15.8063   24.5892 C   0  0  0  0  0
   20.4959  -15.3297   23.8064 C   0  0  0  0  0
   16.9228  -13.5971   22.0090 C   0  0  0  0  0
   16.2573  -13.4083   20.7112 C   0  0  0  0  0
   14.1985  -12.4417   19.5083 C   0  0  0  0  0
   12.9807  -11.7335   19.6462 C   0  0  0  0  0
   13.4971  -10.5661   21.8203 C   0  0  0  0  0
   12.8134  -10.0491   23.0841 C   0  0  0  0  0
   11.9248  -11.1427   23.6676 C   0  0  0  0  0
   10.8585  -11.6333   22.6773 C   0  0  0  0  0
   11.1124  -11.1927   21.2321 C   0  0  0  0  0
   12.1759  -11.5292   18.5132 C   0  0  0  0  0
   12.5717  -11.9980   17.2599 C   0  0  0  0  0
   13.7775  -12.6836   17.1229 C   0  0  0  0  0
   14.5824  -12.9066   18.2405 C   0  0  0  0  0
   18.3208  -14.1504   23.6059 N   0  0  0  0  0
   17.2864  -13.5033   24.1247 N   0  0  0  0  0
   16.4234  -13.1560   23.1802 N   0  0  0  0  0
   15.0018  -12.7165   20.6671 N   0  0  0  0  0
   12.5432  -11.2275   20.9212 N   0  0  0  0  0
   11.3080  -10.6796   24.8286 O   0  0  0  0  0
   16.7905  -13.8482   19.6576 O   0  0  0  0  0
  1  2  1  0  0  0
  2 23  1  0  0  0
  4  5  1  0  0  0
  6  8  1  0  0  0
  7  6  1  0  0  0
  9  3  1  0  0  0
 10 25  1  0  0  0
 10 11  1  0  0  0
 11 26  1  0  0  0
 12 13  1  0  0  0
 13 27  1  0  0  0
 14 27  1  0  0  0
 14 15  1  0  0  0
 15 16  1  0  0  0
 16 28  1  0  0  0
 16 17  1  0  0  0
 17 18  1  0  0  0
 18 27  1  0  0  0
 19 20  1  0  0  0
 21 22  1  0  0  0
 23  3  1  0  0  0
 23 24  1  0  0  0
 26 12  1  0  0  0
  3  4  2  0  0  0
  5  6  2  0  0  0
  8  9  2  0  0  0
 10  2  2  0  0  0
 11 29  2  0  0  0
 13 19  2  0  0  0
 20 21  2  0  0  0
 22 12  2  0  0  0
 24 25  2  0  0  0
M  END
> <rmsd>
0.704709828

$$$$
MolPort-020-216-410 CHEMBL3480891 MCULE-2964834742 PubChem-56874558


 25 27  0  0  0  0  0  0  0  0999 V2000
   21.9302  -15.2215   27.2314 C   0  0  0  0  0
   21.0809  -15.0066   26.0311 C   0  0  0  0  0
   20.8585  -14.1600   23.8160 C   0  0  0  0  0
   21.5123  -13.4172   22.7001 C   0  0  0  0  0
   19.5083  -14.5940   23.7609 C   0  0  0  0  0
   18.9779  -15.2275   24.8940 C   0  0  0  0  0
   19.7577  -15.4379   26.0290 C   0  0  0  0  0
   18.6163  -14.4145   22.5837 C   0  0  0  0  0
   16.4076  -14.3097   21.7135 C   0  0  0  0  0
   14.0140  -14.1351   20.8948 C   0  0  0  0  0
   13.6831  -12.6483   20.7211 C   0  0  0  0  0
   12.9067  -12.0333   21.8570 C   0  0  0  0  0
   12.4323  -10.7222   21.7150 C   0  0  0  0  0
   11.6989  -10.1181   22.7404 C   0  0  0  0  0
   11.4310  -10.8229   23.9167 C   0  0  0  0  0
   11.8941  -12.1323   24.0671 C   0  0  0  0  0
   12.6271  -12.7359   23.0414 C   0  0  0  0  0
   18.2338  -14.1295   20.2251 C   0  0  0  0  0
   19.1242  -14.2629   21.2882 C   0  0  0  0  0
   21.5933  -14.3803   24.9404 N   0  0  0  0  0
   17.2651  -14.4444   22.7589 N   0  0  0  0  0
   14.9992  -14.3450   21.9493 N   0  0  0  0  0
   16.8964  -14.1544   20.4538 N   0  0  0  0  0
   14.8408  -11.9103   20.4641 O   0  0  0  0  0
   10.7038  -10.2225   24.9352 O   0  0  0  0  0
  1  2  1  0  0  0
  3 20  1  0  0  0
  4  3  1  0  0  0
  5  6  1  0  0  0
  5  8  1  0  0  0
  7  2  1  0  0  0
  9 21  1  0  0  0
  9 22  1  0  0  0
 10 22  1  0  0  0
 11 10  1  0  0  0
 11 24  1  0  0  0
 11 12  1  0  0  0
 13 14  1  0  0  0
 15 25  1  0  0  0
 15 16  1  0  0  0
 17 12  1  0  0  0
 18 23  1  0  0  0
 19  8  1  0  0  0
  2 20  2  0  0  0
  3  5  2  0  0  0
  6  7  2  0  0  0
  8 21  2  0  0  0
  9 23  2  0  0  0
 12 13  2  0  0  0
 14 15  2  0  0  0
 16 17  2  0  0  0
 18 19  2  0  0  0
M  END
> <rmsd>
0.716619909

$$$$
MolPort-009-281-154 CSC028075028 MCULE-8110739320 PubChem-34070491 ZINC000026785939 ZINC26785939


 24 26  0  0  0  0  0  0  0  0999 V2000
   11.1865  -10.4670   24.8088 N   0  0  0  0  0
   14.4240  -11.9650   19.7105 N   0  0  0  0  0
   16.8566  -13.6810   20.6956 N   0  0  0  0  0
   16.3765  -14.2951   22.8007 N   0  0  0  0  0
   12.0803  -11.2132   23.9899 C   0  0  0  0  0
   12.6881  -10.6323   22.7666 C   0  0  0  0  0
   13.2567  -11.5196   21.8389 C   0  0  0  0  0
   13.8465  -11.0585   20.6556 C   0  0  0  0  0
   14.4933  -13.4071   19.9100 C   0  0  0  0  0
   15.5318  -13.7378   20.9268 C   0  0  0  0  0
   17.3485  -14.0405   21.9012 C   0  0  0  0  0
   18.7854  -14.1393   22.2009 C   0  0  0  0  0
   19.7361  -13.8557   21.2103 C   0  0  0  0  0
   21.1016  -13.9490   21.4954 C   0  0  0  0  0
   21.5245  -14.3265   22.7728 C   0  0  0  0  0
   20.5821  -14.6104   23.7650 C   0  0  0  0  0
   19.2168  -14.5172   23.4801 C   0  0  0  0  0
   13.8693   -9.6906   20.3893 C   0  0  0  0  0
   13.3170   -8.7902   21.3002 C   0  0  0  0  0
   12.7285   -9.2423   22.4859 C   0  0  0  0  0
   12.3277  -12.4088   24.3028 O   0  0  0  0  0
   15.2670  -14.0951   22.1579 O   0  0  0  0  0
   21.1578  -15.1249   25.5066 Br  0  0  0  0  0
   12.1174   -8.0082   23.5790 Cl  0  0  0  0  0
  1  5  1  0  0  0
  4 22  1  0  0  0
  5  6  1  0  0  0
  7  8  1  0  0  0
  8  2  1  0  0  0
  9  2  1  0  0  0
  9 10  1  0  0  0
 10 22  1  0  0  0
 11  3  1  0  0  0
 11 12  1  0  0  0
 13 14  1  0  0  0
 15 16  1  0  0  0
 16 23  1  0  0  0
 17 12  1  0  0  0
 18 19  1  0  0  0
 20 24  1  0  0  0
 20  6  1  0  0  0
  5 21  2  0  0  0
  6  7  2  0  0  0
  8 18  2  0  0  0
 10  3  2  0  0  0
 11  4  2  0  0  0
 12 13  2  0  0  0
 14 15  2  0  0  0
 16 17  2  0  0  0
 19 20  2  0  0  0
M  END
> <rmsd>
0.524776816

$$$$
MolPort-005-950-169 MCULE-3682352337 ZINC000015675806


 30 34  0  0  0  0  0  0  0  0999 V2000
   22.6324  -16.4571   25.7521 C   0  0  0  0  0
   21.4453  -15.6828   25.3053 C   0  0  0  0  0
   20.2026  -16.3124   25.1918 C   0  0  0  0  0
   19.0857  -15.5839   24.7721 C   0  0  0  0  0
   19.2047  -14.2215   24.4632 C   0  0  0  0  0
   20.4544  -13.5964   24.5790 C   0  0  0  0  0
   21.5713  -14.3250   24.9990 C   0  0  0  0  0
   18.0294  -13.4554   24.0209 C   0  0  0  0  0
   16.0938  -12.9181   23.4652 C   0  0  0  0  0
   14.6288  -12.9542   23.1562 C   0  0  0  0  0
   13.9179  -12.1056   24.2289 C   0  0  0  0  0
   12.5884  -11.6142   23.7733 C   0  0  0  0  0
   12.1551  -11.6622   22.4902 C   0  0  0  0  0
   12.9215  -12.2829   21.3778 C   0  0  0  0  0
   15.2277  -12.7332   20.6715 C   0  0  0  0  0
   15.8925  -12.2144   18.2783 C   0  0  0  0  0
   15.5855  -13.5621   17.6151 C   0  0  0  0  0
   14.1907  -13.5686   16.9904 C   0  0  0  0  0
   14.0621  -12.4356   15.9777 C   0  0  0  0  0
   14.3093  -11.0940   16.6597 C   0  0  0  0  0
   15.7054  -11.0676   17.2821 C   0  0  0  0  0
   10.6714  -10.7162   23.6686 C   0  0  0  0  0
   18.0645  -12.1444   23.7062 N   0  0  0  0  0
   16.7955  -13.9876   23.8837 N   0  0  0  0  0
   14.3192  -12.5156   21.7684 N   0  0  0  0  0
   15.0499  -12.0079   19.4504 N   0  0  0  0  0
   10.9362  -11.1106   22.3996 N   0  0  0  0  0
   11.6699  -11.0058   24.5379 N   0  0  0  0  0
   16.8467  -11.8499   23.3682 O   0  0  0  0  0
   16.1611  -13.5766   20.7667 O   0  0  0  0  0
  1  2  1  0  0  0
  3  4  1  0  0  0
  5  6  1  0  0  0
  5  8  1  0  0  0
  7  2  1  0  0  0
  8 24  1  0  0  0
  9 29  1  0  0  0
 10  9  1  0  0  0
 10 11  1  0  0  0
 10 25  1  0  0  0
 11 12  1  0  0  0
 13 27  1  0  0  0
 14 13  1  0  0  0
 14 25  1  0  0  0
 15 26  1  0  0  0
 16 26  1  0  0  0
 16 17  1  0  0  0
 17 18  1  0  0  0
 18 19  1  0  0  0
 19 20  1  0  0  0
 20 21  1  0  0  0
 21 16  1  0  0  0
 22 28  1  0  0  0
 23 29  1  0  0  0
 25 15  1  0  0  0
 28 12  1  0  0  0
  2  3  2  0  0  0
  4  5  2  0  0  0
  6  7  2  0  0  0
  8 23  2  0  0  0
  9 24  2  0  0  0
 12 13  2  0  0  0
 15 30  2  0  0  0
 22 27  2  0  0  0
M  END
> <rmsd>
0.876525462

$$$$
MolPort-000-857-728 CSC046244758 MCULE-7325642695 PubChem-16408725 ZINC000012897137 ZINC12897137


 26 29  0  0  0  0  0  0  0  0999 V2000
   21.8709  -15.1440   25.4043 C   0  0  0  0  0
   21.2124  -15.4554   24.1018 C   0  0  0  0  0
   21.9621  -16.0665   23.0973 C   0  0  0  0  0
   21.3525  -16.3614   21.8755 C   0  0  0  0  0
   19.3180  -15.4808   22.5976 C   0  0  0  0  0
   17.9788  -15.1926   22.3228 C   0  0  0  0  0
   17.1709  -14.5756   23.2916 C   0  0  0  0  0
   15.1922  -14.5023   21.7889 C   0  0  0  0  0
   15.5475  -13.4165   20.8244 C   0  0  0  0  0
   13.9639  -11.6250   21.7909 C   0  0  0  0  0
   13.7090  -10.2367   21.8535 C   0  0  0  0  0
   12.6819   -9.7248   22.6664 C   0  0  0  0  0
   11.9263  -10.6350   23.4005 C   0  0  0  0  0
   10.5009  -11.5595   24.6940 C   0  0  0  0  0
   11.2582  -12.6066   24.1635 C   0  0  0  0  0
   12.1604  -11.9770   23.3405 C   0  0  0  0  0
   13.1679  -12.5142   22.5445 C   0  0  0  0  0
   17.7151  -14.2537   24.5392 C   0  0  0  0  0
   19.0532  -14.5385   24.8242 C   0  0  0  0  0
   19.8639  -15.1520   23.8590 C   0  0  0  0  0
   22.0198  -16.9128   20.9628 O   0  0  0  0  0
   20.0722  -16.0634   21.6703 O   0  0  0  0  0
   15.8268  -14.2770   23.0441 O   0  0  0  0  0
   16.3804  -13.6672   19.9155 O   0  0  0  0  0
   15.0139  -12.0886   20.9300 N   0  0  0  0  0
   10.9098  -10.3535   24.2270 N   0  0  0  0  0
  1  2  1  0  0  0
  3  4  1  0  0  0
  4 22  1  0  0  0
  5 22  1  0  0  0
  6  7  1  0  0  0
  7 23  1  0  0  0
  8 23  1  0  0  0
  8  9  1  0  0  0
  9 25  1  0  0  0
 11 12  1  0  0  0
 13 26  1  0  0  0
 15 16  1  0  0  0
 16 13  1  0  0  0
 17 10  1  0  0  0
 18 19  1  0  0  0
 20  2  1  0  0  0
 20  5  1  0  0  0
 25 10  1  0  0  0
 26 14  1  0  0  0
  2  3  2  0  0  0
  4 21  2  0  0  0
  5  6  2  0  0  0
  7 18  2  0  0  0
  9 24  2  0  0  0
 10 11  2  0  0  0
 12 13  2  0  0  0
 14 15  2  0  0  0
 16 17  2  0  0  0
 19 20  2  0  0  0
M  END
> <rmsd>
0.767453909

$$$$
MolPort-005-950-168 MCULE-5267304899 ZINC000015675804


 31 35  0  0  0  0  0  0  0  0999 V2000
   22.6412  -16.4516   25.7329 C   0  0  0  0  0
   21.4516  -15.6783   25.2914 C   0  0  0  0  0
   21.5736  -14.3186   24.9920 C   0  0  0  0  0
   20.4543  -13.5912   24.5767 C   0  0  0  0  0
   19.2064  -14.2191   24.4583 C   0  0  0  0  0
   19.0914  -15.5835   24.7603 C   0  0  0  0  0
   20.2107  -16.3109   25.1756 C   0  0  0  0  0
   18.0285  -13.4541   24.0204 C   0  0  0  0  0
   16.0913  -12.9193   23.4686 C   0  0  0  0  0
   14.6263  -12.9578   23.1591 C   0  0  0  0  0
   13.9142  -12.1047   24.2273 C   0  0  0  0  0
   12.5833  -11.6191   23.7688 C   0  0  0  0  0
   12.1514  -11.6728   22.4853 C   0  0  0  0  0
   12.9203  -12.2960   21.3759 C   0  0  0  0  0
   15.2315  -12.7368   20.6757 C   0  0  0  0  0
   15.8841  -12.0552   18.2879 C   0  0  0  0  0
   17.0184  -12.8792   18.2194 C   0  0  0  0  0
   17.7988  -12.9128   17.0603 C   0  0  0  0  0
   17.4511  -12.1221   15.9620 C   0  0  0  0  0
   16.3242  -11.2982   16.0235 C   0  0  0  0  0
   15.5446  -11.2656   17.1835 C   0  0  0  0  0
   10.6659  -10.7226   23.6582 C   0  0  0  0  0
   18.0603  -12.1418   23.7112 N   0  0  0  0  0
   16.7960  -13.9888   23.8820 N   0  0  0  0  0
   14.3177  -12.5244   21.7693 N   0  0  0  0  0
   15.0614  -11.9903   19.4608 N   0  0  0  0  0
   10.9319  -11.1229   22.3913 N   0  0  0  0  0
   11.6641  -11.0069   24.5297 N   0  0  0  0  0
   16.8416  -11.8489   23.3755 O   0  0  0  0  0
   16.1524  -13.5929   20.7724 O   0  0  0  0  0
   18.4274  -12.1632   14.5101 Cl  0  0  0  0  0
  1  2  1  0  0  0
  3  4  1  0  0  0
  5  6  1  0  0  0
  5  8  1  0  0  0
  7  2  1  0  0  0
  8 24  1  0  0  0
  9 29  1  0  0  0
 10  9  1  0  0  0
 10 11  1  0  0  0
 10 25  1  0  0  0
 11 12  1  0  0  0
 13 27  1  0  0  0
 14 13  1  0  0  0
 14 25  1  0  0  0
 15 26  1  0  0  0
 17 18  1  0  0  0
 19 31  1  0  0  0
 19 20  1  0  0  0
 21 16  1  0  0  0
 22 28  1  0  0  0
 23 29  1  0  0  0
 25 15  1  0  0  0
 26 16  1  0  0  0
 28 12  1  0  0  0
  2  3  2  0  0  0
  4  5  2  0  0  0
  6  7  2  0  0  0
  8 23  2  0  0  0
  9 24  2  0  0  0
 12 13  2  0  0  0
 15 30  2  0  0  0
 16 17  2  0  0  0
 18 19  2  0  0  0
 20 21  2  0  0  0
 22 27  2  0  0  0
M  END
> <rmsd>
0.875763953

$$$$
MolPort-009-490-427 CSC026266068 MCULE-1015835172 PubChem-42885145


 23 25  0  0  0  0  0  0  0  0999 V2000
   14.4646  -15.4743   21.5087 C   0  0  0  0  0
   15.7399  -14.6558   21.5701 C   0  0  0  0  0
   17.1896  -14.3093   23.5479 C   0  0  0  0  0
   18.2807  -14.9585   22.9469 C   0  0  0  0  0
   19.4911  -15.0839   23.6346 C   0  0  0  0  0
   19.6187  -14.5619   24.9249 C   0  0  0  0  0
   20.9053  -14.6948   25.6563 C   0  0  0  0  0
   18.5360  -13.9149   25.5272 C   0  0  0  0  0
   17.3250  -13.7894   24.8396 C   0  0  0  0  0
   15.7407  -13.5482   20.5585 C   0  0  0  0  0
   14.3422  -11.8056   21.8577 C   0  0  0  0  0
   14.2957  -10.4346   22.2014 C   0  0  0  0  0
   13.3947   -9.9608   23.1727 C   0  0  0  0  0
   12.5501  -10.8919   23.7691 C   0  0  0  0  0
   11.1098  -11.9125   24.9010 C   0  0  0  0  0
   12.5764  -12.2109   23.4326 C   0  0  0  0  0
   13.4531  -12.7111   22.4748 C   0  0  0  0  0
   15.9673  -14.1658   22.8864 O   0  0  0  0  0
   16.2550  -13.7766   19.4332 O   0  0  0  0  0
   10.1876  -12.1417   25.7261 O   0  0  0  0  0
   15.2560  -12.2240   20.8356 N   0  0  0  0  0
   11.6195  -10.6690   24.7082 N   0  0  0  0  0
   11.6640  -12.8914   24.1408 N   0  0  0  0  0
  2  1  1  0  0  0
  2 18  1  0  0  0
  2 10  1  0  0  0
  3 18  1  0  0  0
  4  5  1  0  0  0
  6  8  1  0  0  0
  7  6  1  0  0  0
  9  3  1  0  0  0
 10 21  1  0  0  0
 12 13  1  0  0  0
 14 22  1  0  0  0
 15 23  1  0  0  0
 16 14  1  0  0  0
 17 11  1  0  0  0
 21 11  1  0  0  0
 22 15  1  0  0  0
 23 16  1  0  0  0
  3  4  2  0  0  0
  5  6  2  0  0  0
  8  9  2  0  0  0
 10 19  2  0  0  0
 11 12  2  0  0  0
 13 14  2  0  0  0
 15 20  2  0  0  0
 16 17  2  0  0  0
M  END
> <rmsd>
0.664354742

$$$$
MolPort-009-288-245 CSC027978567 MCULE-3987499853 PubChem-45877959


 28 31  0  0  0  0  0  0  0  0999 V2000
   20.9540  -15.2195   26.1171 Cl  0  0  0  0  0
   19.2099  -14.9442   20.0623 Cl  0  0  0  0  0
   20.4414  -15.1684   24.4446 C   0  0  0  0  0
   21.3433  -15.4860   23.4280 C   0  0  0  0  0
   20.9360  -15.4351   22.0934 C   0  0  0  0  0
   19.6235  -15.0791   21.7659 C   0  0  0  0  0
   18.7025  -14.7756   22.7930 C   0  0  0  0  0
   19.1293  -14.8108   24.1275 C   0  0  0  0  0
   17.3046  -14.3963   22.5121 C   0  0  0  0  0
   16.7016  -16.6076   21.4322 C   0  0  0  0  0
   15.4095  -17.1576   20.8583 C   0  0  0  0  0
   14.5337  -15.9598   20.5185 C   0  0  0  0  0
   15.1680  -14.7544   21.1898 C   0  0  0  0  0
   15.3017  -13.6228   20.2126 C   0  0  0  0  0
   13.8680  -11.9327   21.5404 C   0  0  0  0  0
   13.3837  -10.6040   21.5562 C   0  0  0  0  0
   12.5833  -10.1351   22.6144 C   0  0  0  0  0
   12.2900  -11.0298   23.6386 C   0  0  0  0  0
   11.6071  -12.0070   25.3638 C   0  0  0  0  0
   12.7501  -12.3110   23.6324 C   0  0  0  0  0
   13.5428  -12.8057   22.6016 C   0  0  0  0  0
   16.8275  -13.3691   23.0664 O   0  0  0  0  0
   15.9869  -13.7892   19.1684 O   0  0  0  0  0
   11.0279  -12.2205   26.4604 O   0  0  0  0  0
   16.4711  -15.1935   21.6552 N   0  0  0  0  0
   14.6811  -12.3477   20.4329 N   0  0  0  0  0
   11.5537  -10.8043   24.7361 N   0  0  0  0  0
   12.3293  -12.9632   24.7256 N   0  0  0  0  0
  3  1  1  0  0  0
  4  5  1  0  0  0
  6  2  1  0  0  0
  6  7  1  0  0  0
  7  9  1  0  0  0
  8  3  1  0  0  0
  9 25  1  0  0  0
 10 25  1  0  0  0
 10 11  1  0  0  0
 11 12  1  0  0  0
 12 13  1  0  0  0
 13 14  1  0  0  0
 13 25  1  0  0  0
 14 26  1  0  0  0
 16 17  1  0  0  0
 18 27  1  0  0  0
 19 28  1  0  0  0
 20 18  1  0  0  0
 21 15  1  0  0  0
 26 15  1  0  0  0
 27 19  1  0  0  0
 28 20  1  0  0  0
  3  4  2  0  0  0
  5  6  2  0  0  0
  7  8  2  0  0  0
  9 22  2  0  0  0
 14 23  2  0  0  0
 15 16  2  0  0  0
 17 18  2  0  0  0
 19 24  2  0  0  0
 20 21  2  0  0  0
M  END
> <rmsd>
0.7455948

$$$$
MolPort-028-783-176 CSC026965933 MCULE-6358355882 ZINC000095981482 ZINC95981482


 25 27  0  0  0  0  0  0  0  0999 V2000
   11.1122  -10.6303   24.4575 O   0  0  0  0  0
   15.9929  -13.8677   19.4714 O   0  0  0  0  0
   12.0713  -11.0137   23.5259 C   0  0  0  0  0
   12.4067  -12.3673   23.3769 C   0  0  0  0  0
   13.3711  -12.7475   22.4405 C   0  0  0  0  0
   14.0198  -11.7833   21.6562 C   0  0  0  0  0
   15.6960  -13.3955   20.6002 C   0  0  0  0  0
   16.1477  -14.0981   21.8139 C   0  0  0  0  0
   16.6572  -15.3827   21.8642 C   0  0  0  0  0
   17.5811  -16.7635   23.7221 C   0  0  0  0  0
   19.0651  -16.6255   23.7278 C   0  0  0  0  0
   19.8116  -17.0446   22.6209 C   0  0  0  0  0
   21.2014  -16.8911   22.6155 C   0  0  0  0  0
   21.8453  -16.3135   23.7142 C   0  0  0  0  0
   21.0995  -15.8879   24.8177 C   0  0  0  0  0
   19.7097  -16.0407   24.8234 C   0  0  0  0  0
   13.6696  -10.4375   21.7953 C   0  0  0  0  0
   12.7045  -10.0484   22.7288 C   0  0  0  0  0
   11.6289  -13.6023   24.3501 Cl  0  0  0  0  0
   12.3004   -8.3482   22.8810 Cl  0  0  0  0  0
   14.9841  -12.1526   20.6634 N   0  0  0  0  0
   16.9687  -15.5719   23.1581 N   0  0  0  0  0
   16.6950  -14.4780   23.8476 N   0  0  0  0  0
   16.1900  -13.5541   23.0472 N   0  0  0  0  0
   21.7231  -15.3252   25.8802 F   0  0  0  0  0
  3  1  1  0  0  0
  4 19  1  0  0  0
  4  5  1  0  0  0
  6 21  1  0  0  0
  6 17  1  0  0  0
  7  8  1  0  0  0
  8 24  1  0  0  0
  9 22  1  0  0  0
 10 22  1  0  0  0
 10 11  1  0  0  0
 12 13  1  0  0  0
 14 15  1  0  0  0
 15 25  1  0  0  0
 16 11  1  0  0  0
 18 20  1  0  0  0
 18  3  1  0  0  0
 21  7  1  0  0  0
 22 23  1  0  0  0
  3  4  2  0  0  0
  5  6  2  0  0  0
  7  2  2  0  0  0
  8  9  2  0  0  0
 11 12  2  0  0  0
 13 14  2  0  0  0
 15 16  2  0  0  0
 17 18  2  0  0  0
 23 24  2  0  0  0
M  END
> <rmsd>
0.689014077

$$$$
MolPort-005-587-283 CSC027104835 MCULE-4143217866 PubChem-17565582


 27 30  0  0  0  0  0  0  0  0999 V2000
   14.6932  -15.5621   21.6293 C   0  0  0  0  0
   15.3534  -14.2499   22.0383 C   0  0  0  0  0
   17.0855  -13.1759   23.3112 C   0  0  0  0  0
   18.2260  -13.3870   24.3101 C   0  0  0  0  0
   19.1376  -14.5395   23.9421 C   0  0  0  0  0
   18.8297  -15.3499   22.9176 C   0  0  0  0  0
   17.6355  -15.0938   22.0469 C   0  0  0  0  0
   20.3247  -14.8236   24.7830 C   0  0  0  0  0
   21.0850  -15.9903   24.5896 C   0  0  0  0  0
   22.2029  -16.2503   25.3852 C   0  0  0  0  0
   22.5767  -15.3450   26.3811 C   0  0  0  0  0
   21.8295  -14.1821   26.5883 C   0  0  0  0  0
   20.7101  -13.9246   25.7926 C   0  0  0  0  0
   15.5017  -13.3030   20.8683 C   0  0  0  0  0
   13.7368  -11.6127   21.6889 C   0  0  0  0  0
   12.8304  -10.6149   21.2585 C   0  0  0  0  0
   11.8348  -10.1165   22.1197 C   0  0  0  0  0
   11.7917  -10.6334   23.4073 C   0  0  0  0  0
   11.3809  -11.0852   25.4114 C   0  0  0  0  0
   12.6744  -11.5764   23.8393 C   0  0  0  0  0
   13.6666  -12.0935   23.0135 C   0  0  0  0  0
   16.5765  -14.4620   22.8371 N   0  0  0  0  0
   14.7145  -12.1021   20.7613 N   0  0  0  0  0
   10.9501  -10.2966   24.3929 N   0  0  0  0  0
   12.4417  -11.8822   25.1219 N   0  0  0  0  0
   16.3033  -13.5860   19.9412 O   0  0  0  0  0
   10.8528  -11.0600   26.5549 O   0  0  0  0  0
  2  1  1  0  0  0
  2 22  1  0  0  0
  2 14  1  0  0  0
  3 22  1  0  0  0
  3  4  1  0  0  0
  4  5  1  0  0  0
  5  8  1  0  0  0
  7  6  1  0  0  0
  7 22  1  0  0  0
  9 10  1  0  0  0
 11 12  1  0  0  0
 13  8  1  0  0  0
 14 23  1  0  0  0
 16 17  1  0  0  0
 18 24  1  0  0  0
 19 25  1  0  0  0
 20 18  1  0  0  0
 21 15  1  0  0  0
 23 15  1  0  0  0
 24 19  1  0  0  0
 25 20  1  0  0  0
  5  6  2  0  0  0
  8  9  2  0  0  0
 10 11  2  0  0  0
 12 13  2  0  0  0
 14 26  2  0  0  0
 15 16  2  0  0  0
 17 18  2  0  0  0
 19 27  2  0  0  0
 20 21  2  0  0  0
M  END
> <rmsd>
0.592824578

$$$$
MolPort-023-162-526 CSC027575105 MCULE-2816177103 PubChem-72125926 ZINC000076040680 ZINC76040680


 25 27  0  0  0  0  0  0  0  0999 V2000
   20.7769  -14.8541   25.9745 C   0  0  0  0  0
   20.1031  -14.7759   24.6525 C   0  0  0  0  0
   20.3328  -15.7637   23.6913 C   0  0  0  0  0
   19.6967  -15.6905   22.4486 C   0  0  0  0  0
   18.8175  -14.6372   22.1614 C   0  0  0  0  0
   18.6111  -13.6387   23.1235 C   0  0  0  0  0
   19.2458  -13.7103   24.3668 C   0  0  0  0  0
   18.1996  -14.5592   20.8234 C   0  0  0  0  0
   17.0187  -13.9494   20.4223 C   0  0  0  0  0
   17.9883  -14.7937   18.7211 C   0  0  0  0  0
   15.9716  -13.3209   21.2464 C   0  0  0  0  0
   13.9279  -11.7708   21.2464 C   0  0  0  0  0
   13.0680  -11.0030   20.4587 C   0  0  0  0  0
   12.0108  -10.3040   21.0436 C   0  0  0  0  0
   11.8013  -10.3641   22.4243 C   0  0  0  0  0
   12.6604  -11.1343   23.2365 C   0  0  0  0  0
   13.7181  -11.8299   22.6311 C   0  0  0  0  0
   12.4861  -11.2338   24.7038 C   0  0  0  0  0
   16.8946  -14.0939   19.0892 N   0  0  0  0  0
   15.0059  -12.4714   20.6109 N   0  0  0  0  0
   11.4315  -10.5460   25.3701 N   0  0  0  0  0
   18.7546  -15.0715   19.7523 O   0  0  0  0  0
   15.8944  -13.5696   22.4785 O   0  0  0  0  0
   13.2787  -11.9372   25.3860 O   0  0  0  0  0
   10.7622   -9.6694   22.9501 F   0  0  0  0  0
  1  2  1  0  0  0
  3  4  1  0  0  0
  5  6  1  0  0  0
  5  8  1  0  0  0
  7  2  1  0  0  0
  8 22  1  0  0  0
  9 19  1  0  0  0
  9 11  1  0  0  0
 10 22  1  0  0  0
 11 20  1  0  0  0
 13 14  1  0  0  0
 15 25  1  0  0  0
 15 16  1  0  0  0
 16 18  1  0  0  0
 17 12  1  0  0  0
 18 21  1  0  0  0
 20 12  1  0  0  0
  2  3  2  0  0  0
  4  5  2  0  0  0
  6  7  2  0  0  0
  8  9  2  0  0  0
 10 19  2  0  0  0
 11 23  2  0  0  0
 12 13  2  0  0  0
 14 15  2  0  0  0
 16 17  2  0  0  0
 18 24  2  0  0  0
M  END
> <rmsd>
0.778073728

$$$$
MolPort-030-021-090 CSC027561889 MCULE-8848269725 PubChem-86791279


 19 21  0  0  0  0  0  0  0  0999 V2000
   20.3094  -15.0237   25.2616 Br  0  0  0  0  0
   19.3277  -14.6688   23.6679 C   0  0  0  0  0
   18.0732  -14.0447   23.7359 C   0  0  0  0  0
   16.0382  -13.2567   21.0785 C   0  0  0  0  0
   13.7564  -12.1286   21.1135 C   0  0  0  0  0
   12.6878  -11.4230   23.3154 C   0  0  0  0  0
   12.6837  -11.3098   24.6848 C   0  0  0  0  0
   11.5101  -10.8799   22.8508 C   0  0  0  0  0
   17.8999  -14.1513   21.3691 C   0  0  0  0  0
   19.1383  -14.7729   21.2336 C   0  0  0  0  0
   19.8567  -15.0316   22.4132 C   0  0  0  0  0
   17.4188  -13.8164   22.5714 N   0  0  0  0  0
   16.2409  -13.2480   22.4189 N   0  0  0  0  0
   14.8681  -12.7313   20.4428 N   0  0  0  0  0
   13.7422  -12.0057   22.5420 N   0  0  0  0  0
   11.5262  -10.7114   25.0245 N   0  0  0  0  0
   10.8252  -10.4547   23.9291 N   0  0  0  0  0
   17.0574  -13.8164   20.3758 N   0  0  0  0  0
   12.7887  -11.7071   20.4269 O   0  0  0  0  0
  2  1  1  0  0  0
  3 12  1  0  0  0
  4 14  1  0  0  0
  4 18  1  0  0  0
  5 15  1  0  0  0
  7 16  1  0  0  0
  8  6  1  0  0  0
  9 10  1  0  0  0
  9 12  1  0  0  0
 11  2  1  0  0  0
 12 13  1  0  0  0
 14  5  1  0  0  0
 15  6  1  0  0  0
 16 17  1  0  0  0
  2  3  2  0  0  0
  4 13  2  0  0  0
  5 19  2  0  0  0
  6  7  2  0  0  0
  8 17  2  0  0  0
  9 18  2  0  0  0
 10 11  2  0  0  0
M  END
> <rmsd>
0.784137309

$$$$
MolPort-039-027-345 PubChem-91894477


 28 31  0  0  0  0  0  0  0  0999 V2000
   17.4306  -14.5938   25.1284 C   0  0  0  0  0
   18.3566  -15.7456   25.5858 C   0  0  0  0  0
   18.3290  -16.8682   23.5285 C   0  0  0  0  0
   17.5845  -15.7160   22.9398 C   0  0  0  0  0
   17.2396  -15.5021   21.6209 C   0  0  0  0  0
   16.5895  -14.2694   21.6888 C   0  0  0  0  0
   16.0368  -13.5455   20.5302 C   0  0  0  0  0
   14.1982  -12.2211   21.7087 C   0  0  0  0  0
   13.7007  -10.9374   21.9517 C   0  0  0  0  0
   12.7107  -10.7353   22.9177 C   0  0  0  0  0
   12.1984  -11.8182   23.6456 C   0  0  0  0  0
   12.6836  -13.1079   23.3870 C   0  0  0  0  0
   13.6726  -13.3092   22.4208 C   0  0  0  0  0
   11.1571  -11.6042   24.6657 C   0  0  0  0  0
   19.8306  -15.4181   25.5807 C   0  0  0  0  0
   20.7191  -16.2839   26.2307 C   0  0  0  0  0
   22.0905  -16.0121   26.2413 C   0  0  0  0  0
   22.5820  -14.8714   25.6011 C   0  0  0  0  0
   21.7028  -14.0016   24.9506 C   0  0  0  0  0
   20.3318  -14.2732   24.9402 C   0  0  0  0  0
   18.0676  -16.9713   24.9208 O   0  0  0  0  0
   16.3669  -13.9016   19.3684 O   0  0  0  0  0
   10.6952  -12.5782   25.3178 O   0  0  0  0  0
   16.5810  -13.7891   22.9521 N   0  0  0  0  0
   17.1931  -14.6888   23.6952 N   0  0  0  0  0
   15.1847  -12.4029   20.6859 N   0  0  0  0  0
   10.6608  -10.2943   24.9270 N   0  0  0  0  0
   23.9106  -14.6085   25.6114 F   0  0  0  0  0
  1  2  1  0  0  0
  1 25  1  0  0  0
  2 21  1  0  0  0
  2 15  1  0  0  0
  3 21  1  0  0  0
  3  4  1  0  0  0
  5  6  1  0  0  0
  6  7  1  0  0  0
  7 26  1  0  0  0
  9 10  1  0  0  0
 11 12  1  0  0  0
 11 14  1  0  0  0
 13  8  1  0  0  0
 14 27  1  0  0  0
 16 17  1  0  0  0
 18 19  1  0  0  0
 18 28  1  0  0  0
 20 15  1  0  0  0
 25 24  1  0  0  0
 25  4  1  0  0  0
 26  8  1  0  0  0
  4  5  2  0  0  0
  6 24  2  0  0  0
  7 22  2  0  0  0
  8  9  2  0  0  0
 10 11  2  0  0  0
 12 13  2  0  0  0
 14 23  2  0  0  0
 15 16  2  0  0  0
 17 18  2  0  0  0
 19 20  2  0  0  0
M  END
> <rmsd>
0.523322165

$$$$
MolPort-002-196-039 CHEMBL1511190 MCULE-4952041846 PubChem-2895747


 28 31  0  0  0  0  0  0  0  0999 V2000
   18.0775  -15.6065   18.9901 C   0  0  0  0  0
   17.2383  -14.4275   18.6529 C   0  0  0  0  0
   17.1833  -13.9624   17.3373 C   0  0  0  0  0
   16.3903  -12.8527   17.0398 C   0  0  0  0  0
   15.6662  -12.2230   18.0539 C   0  0  0  0  0
   15.7462  -12.7154   19.3586 C   0  0  0  0  0
   15.0662  -12.5066   21.7927 C   0  0  0  0  0
   13.9547  -11.8985   22.5919 C   0  0  0  0  0
   13.1809  -12.7211   23.4180 C   0  0  0  0  0
   12.1509  -12.1744   24.1892 C   0  0  0  0  0
   11.8935  -10.8013   24.1400 C   0  0  0  0  0
   12.6672   -9.9736   23.3213 C   0  0  0  0  0
   13.6973  -10.5195   22.5501 C   0  0  0  0  0
   16.4115  -12.2257   22.4044 C   0  0  0  0  0
   16.9655  -10.9373   22.3399 C   0  0  0  0  0
   18.2143  -10.6724   22.9055 C   0  0  0  0  0
   18.9198  -11.6943   23.5414 C   0  0  0  0  0
   20.1691  -11.4449   24.1097 C   0  0  0  0  0
   20.8613  -12.4792   24.7420 C   0  0  0  0  0
   20.2913  -13.7539   24.7970 C   0  0  0  0  0
   21.0195  -14.8623   25.4672 C   0  0  0  0  0
   18.3736  -12.9943   23.6155 C   0  0  0  0  0
   17.1186  -13.2567   23.0473 C   0  0  0  0  0
   15.0100  -12.0716   20.4005 N   0  0  0  0  0
   19.0719  -13.9834   24.2386 N   0  0  0  0  0
   16.5249  -13.8014   19.6268 N   0  0  0  0  0
   10.8702  -10.2594   24.9053 O   0  0  0  0  0
   16.5777  -14.5374   23.1186 O   0  0  0  0  0
  1  2  1  0  0  0
  2 26  1  0  0  0
  3  4  1  0  0  0
  5  6  1  0  0  0
  6 24  1  0  0  0
  7 24  1  0  0  0
  7  8  1  0  0  0
  7 14  1  0  0  0
  9 10  1  0  0  0
 11 27  1  0  0  0
 11 12  1  0  0  0
 13  8  1  0  0  0
 15 16  1  0  0  0
 17 18  1  0  0  0
 19 20  1  0  0  0
 21 20  1  0  0  0
 22 25  1  0  0  0
 22 17  1  0  0  0
 23 28  1  0  0  0
 23 14  1  0  0  0
  2  3  2  0  0  0
  4  5  2  0  0  0
  6 26  2  0  0  0
  8  9  2  0  0  0
 10 11  2  0  0  0
 12 13  2  0  0  0
 14 15  2  0  0  0
 16 17  2  0  0  0
 18 19  2  0  0  0
 20 25  2  0  0  0
 22 23  2  0  0  0
M  END
> <rmsd>
0.392289996

$$$$
MolPort-009-431-252 CSC027275089 MCULE-9407760160


 25 27  0  0  0  0  0  0  0  0999 V2000
   14.9407  -15.6602   21.5442 C   0  0  0  0  0
   15.3170  -14.2221   21.8682 C   0  0  0  0  0
   15.7418  -13.4371   20.6608 C   0  0  0  0  0
   14.1630  -11.4313   21.0640 C   0  0  0  0  0
   13.6219  -10.2674   20.4950 C   0  0  0  0  0
   12.6852   -9.5036   21.1986 C   0  0  0  0  0
   12.2824   -9.8915   22.4779 C   0  0  0  0  0
   12.8222  -11.0541   23.0611 C   0  0  0  0  0
   12.3952  -11.4096   24.3474 C   0  0  0  0  0
   10.9736   -9.5157   24.4082 C   0  0  0  0  0
   13.7596  -11.8147   22.3517 C   0  0  0  0  0
   17.5285  -14.6990   22.9882 C   0  0  0  0  0
   18.3471  -14.4343   24.0919 C   0  0  0  0  0
   19.6259  -14.9930   24.1760 C   0  0  0  0  0
   20.4868  -14.7037   25.3521 C   0  0  0  0  0
   20.0944  -15.8239   23.1548 C   0  0  0  0  0
   19.2839  -16.0962   22.0497 C   0  0  0  0  0
   18.0057  -15.5369   21.9670 C   0  0  0  0  0
   15.1327  -12.1837   20.3175 N   0  0  0  0  0
   11.4826  -10.6342   24.9900 N   0  0  0  0  0
   11.3731   -9.1505   23.1617 N   0  0  0  0  0
   14.0023   -9.8727   19.2547 F   0  0  0  0  0
   12.8464  -12.4398   24.9163 O   0  0  0  0  0
   16.6506  -13.8888   19.9154 O   0  0  0  0  0
   16.2507  -14.1201   22.9476 O   0  0  0  0  0
  1  2  1  0  0  0
  2  3  1  0  0  0
  2 25  1  0  0  0
  3 19  1  0  0  0
  5 22  1  0  0  0
  5  6  1  0  0  0
  7  8  1  0  0  0
  7 21  1  0  0  0
  8  9  1  0  0  0
  9 20  1  0  0  0
 11  4  1  0  0  0
 12 25  1  0  0  0
 13 14  1  0  0  0
 15 14  1  0  0  0
 16 17  1  0  0  0
 18 12  1  0  0  0
 19  4  1  0  0  0
 20 10  1  0  0  0
  3 24  2  0  0  0
  4  5  2  0  0  0
  6  7  2  0  0  0
  8 11  2  0  0  0
  9 23  2  0  0  0
 10 21  2  0  0  0
 12 13  2  0  0  0
 14 16  2  0  0  0
 17 18  2  0  0  0
M  END
> <rmsd>
0.430116683

$$$$
