@<TRIPOS>MOLECULE
52.59
    81    86     1     0     0
SMALL
NO_CHARGES
****
Generated from the CSD

@<TRIPOS>ATOM
     1 C       26.4205  46.3250   1.3081   C.3       1 RES1   0.0000
     2 C       27.7738  45.9097   0.6840   C.3       1 RES1   0.0000
     3 C       28.9658  46.7832   1.1619   C.3       1 RES1   0.0000
     4 C       30.1531  46.4844   0.2011   C.3       1 RES1   0.0000
     5 C       31.1873  45.4674   0.7477   C.3       1 RES1   0.0000
     6 C       32.0084  46.1941   1.7765   C.2       1 RES1   0.0000
     7 C       33.3397  46.1148   1.8673   C.2       1 RES1   0.0000
     8 C       34.1239  45.2459   0.9634   C.2       1 RES1   0.0000
     9 C       35.4636  45.2935   1.0300   C.2       1 RES1   0.0000
    10 C       36.2510  44.3804   0.1302   C.ar      1 RES1   0.0000
    11 C       35.6698  43.7126  -0.9251   C.ar      1 RES1   0.0000
    12 C       36.6922  42.9586  -1.4929   C.ar      1 RES1   0.0000
    13 N       37.8323  43.1994  -0.8069   N.ar      1 RES1   0.0000
    14 N       37.5571  44.0634   0.1756   N.ar      1 RES1   0.0000
    15 C       38.4213  44.5467   1.1084   C.ar      1 RES1   0.0000
    16 C       39.7034  44.9465   0.7288   C.ar      1 RES1   0.0000
    17 C       40.5892  45.4483   1.6835   C.ar      1 RES1   0.0000
    18 C       40.1928  45.5503   3.0180   C.ar      1 RES1   0.0000
    19 C       38.9116  45.1474   3.3982   C.ar      1 RES1   0.0000
    20 C       38.0271  44.6425   2.4440   C.ar      1 RES1   0.0000
    21 C       34.2027  43.8923  -1.2595   C.3       1 RES1   0.0000
    22 C       33.3988  44.2901   0.0193   C.3       1 RES1   0.0000
    23 C       32.0628  44.9630  -0.4364   C.3       1 RES1   0.0000
    24 C       31.1994  44.1521  -1.4587   C.3       1 RES1   0.0000
    25 C       30.1959  45.0890  -2.1716   C.3       1 RES1   0.0000
    26 C       29.4086  45.6700  -0.9211   C.3       1 RES1   0.0000
    27 C       27.8367  45.9213  -0.8696   C.3       1 RES1   0.0000
    28 C       27.1292  44.7544  -1.5192   C.2       1 RES1   0.0000
    29 O       26.3776  44.0532  -0.8619   O.2       1 RES1   0.0000
    30 C       27.3745  44.4346  -2.9694   C.3       1 RES1   0.0000
    31 O       28.0185  43.1577  -3.0533   O.3       1 RES1   0.0000
    32 O       27.0845  47.0441  -1.3883   O.3       1 RES1   0.0000
    33 C       29.4826  47.0232  -1.7761   C.3       1 RES1   0.0000
    34 O       30.3990  43.1505  -0.8207   O.3       1 RES1   0.0000
    35 C       33.2280  43.0198   0.8899   C.3       1 RES1   0.0000
    36 C       34.0335  46.9235   2.9376   C.3       1 RES1   0.0000
    37 H1      25.6116  45.7259   0.8649   H         1 RES1   0.0000
    38 H2      26.4563  46.1298   2.3904   H         1 RES1   0.0000
    39 H3      26.2033  47.3918   1.1582   H         1 RES1   0.0000
    40 H4      28.0046  44.8973   1.0445   H         1 RES1   0.0000
    41 H5      28.6872  47.8432   1.0669   H         1 RES1   0.0000
    42 H6      29.1996  46.5728   2.2156   H         1 RES1   0.0000
    43 H7      30.7463  47.4013   0.0405   H         1 RES1   0.0000
    44 H8      30.6589  44.6267   1.2207   H         1 RES1   0.0000
    45 H9      31.4740  46.8242   2.4845   H         1 RES1   0.0000
    46 H10     36.0238  45.9438   1.6972   H         1 RES1   0.0000
    47 H11     36.5923  42.2932  -2.3428   H         1 RES1   0.0000
    48 H12     40.0104  44.8676  -0.3082   H         1 RES1   0.0000
    49 H13     41.5853  45.7591   1.3886   H         1 RES1   0.0000
    50 H14     40.8801  45.9424   3.7593   H         1 RES1   0.0000
    51 H15     38.6036  45.2263   4.4349   H         1 RES1   0.0000
    52 H16     37.0337  44.3248   2.7407   H         1 RES1   0.0000
    53 H17     33.8414  42.9547  -1.7058   H         1 RES1   0.0000
    54 H18     34.1495  44.6962  -2.0085   H         1 RES1   0.0000
    55 H19     32.3947  45.8685  -0.9670   H         1 RES1   0.0000
    56 H20     31.8041  43.6821  -2.2463   H         1 RES1   0.0000
    57 H21     30.8249  45.6242  -2.9033   H         1 RES1   0.0000
    58 H22     29.5014  44.4556  -2.7442   H         1 RES1   0.0000
    59 H23     26.4368  44.3940  -3.5378   H         1 RES1   0.0000
    60 H24     28.0384  45.1936  -3.4104   H         1 RES1   0.0000
    61 H25     27.5648  42.5179  -2.5160   H         1 RES1   0.0000
    62 H26     26.7843  47.6729  -0.7427   H         1 RES1   0.0000
    63 H27     29.1046  47.9239  -1.2737   H         1 RES1   0.0000
    64 H28     30.4913  47.3902  -2.0403   H         1 RES1   0.0000
    65 H29     28.9341  46.9318  -2.7314   H         1 RES1   0.0000
    66 H30     30.4125  42.3208  -1.2758   H         1 RES1   0.0000
    67 H31     34.1962  42.7742   1.3512   H         1 RES1   0.0000
    68 H32     32.9222  42.1492   0.2960   H         1 RES1   0.0000
    69 H33     32.4980  43.1933   1.6932   H         1 RES1   0.0000
    70 H34     34.6607  47.6967   2.4697   H         1 RES1   0.0000
    71 H35     33.3175  47.4240   3.6057   H         1 RES1   0.0000
    72 H36     34.6618  46.2634   3.5542   H         1 RES1   0.0000
    73 ****    38.7280  42.7995  -1.0012   Du        1 RES1   0.0000
    74 ****    26.2293  44.2505   0.1072   Du        1 RES1   0.0000
    75 ****    25.9098  43.2812  -1.2923   Du        1 RES1   0.0000
    76 ****    28.9625  43.2442  -2.7347   Du        1 RES1   0.0000
    77 ****    28.0148  42.8497  -4.0047   Du        1 RES1   0.0000
    78 ****    26.2812  46.6830  -1.8619   Du        1 RES1   0.0000
    79 ****    27.6667  47.5284  -2.0413   Du        1 RES1   0.0000
    80 ****    29.4544  43.4760  -0.7796   Du        1 RES1   0.0000
    81 ****    30.7440  43.0104   0.1074   Du        1 RES1   0.0000
@<TRIPOS>BOND
     1     1     2    1
     2     2     3    1
     3     3     4    1
     4     4     5    1
     5     5     6    1
     6     6     7    2
     7     7     8    1
     8     8     9    2
     9     9    10    1
    10    10    11   ar
    11    11    12   ar
    12    12    13   ar
    13    13    14   ar
    14    10    14   ar
    15    14    15    1
    16    15    16   ar
    17    16    17   ar
    18    17    18   ar
    19    18    19   ar
    20    19    20   ar
    21    15    20   ar
    22    11    21    1
    23    21    22    1
    24     8    22    1
    25    22    23    1
    26     5    23    1
    27    23    24    1
    28    24    25    1
    29    25    26    1
    30     4    26    1
    31    26    27    1
    32     2    27    1
    33    27    28    1
    34    28    29    2
    35    28    30    1
    36    30    31    1
    37    27    32    1
    38    26    33    1
    39    24    34    1
    40    22    35    1
    41     7    36    1
    42     1    37    1
    43     1    38    1
    44     1    39    1
    45     2    40    1
    46     3    41    1
    47     3    42    1
    48     4    43    1
    49     5    44    1
    50     6    45    1
    51     9    46    1
    52    12    47    1
    53    16    48    1
    54    17    49    1
    55    18    50    1
    56    19    51    1
    57    20    52    1
    58    21    53    1
    59    21    54    1
    60    23    55    1
    61    24    56    1
    62    25    57    1
    63    25    58    1
    64    30    59    1
    65    30    60    1
    66    31    61    1
    67    32    62    1
    68    33    63    1
    69    33    64    1
    70    33    65    1
    71    34    66    1
    72    35    67    1
    73    35    68    1
    74    35    69    1
    75    36    70    1
    76    36    71    1
    77    36    72    1
    78    13    73    1
    79    29    74    1
    80    29    75    1
    81    31    76    1
    82    31    77    1
    83    32    78    1
    84    32    79    1
    85    34    80    1
    86    34    81    1
@<TRIPOS>SUBSTRUCTURE
     1 RES1        1 GROUP             0 ****  ****    0  
@<TRIPOS>MOLECULE
49.1097
    81    86     1     0     0
SMALL
NO_CHARGES
****
Generated from the CSD

@<TRIPOS>ATOM
     1 C       39.2070  50.6494 -11.4723   C.3       1 RES1   0.0000
     2 C       38.3143  49.9004 -10.4548   C.3       1 RES1   0.0000
     3 C       39.0108  48.6684  -9.8149   C.3       1 RES1   0.0000
     4 C       37.8967  47.8394  -9.1122   C.3       1 RES1   0.0000
     5 C       37.7809  48.0757  -7.5847   C.3       1 RES1   0.0000
     6 C       38.9316  47.3498  -6.9448   C.2       1 RES1   0.0000
     7 C       38.8253  46.5917  -5.8490   C.2       1 RES1   0.0000
     8 C       37.5376  46.4413  -5.1375   C.2       1 RES1   0.0000
     9 C       37.4688  45.5801  -4.1103   C.2       1 RES1   0.0000
    10 C       36.1636  45.4604  -3.3718   C.ar      1 RES1   0.0000
    11 C       34.9905  45.9844  -3.8684   C.ar      1 RES1   0.0000
    12 C       34.0245  45.7032  -2.9072   C.ar      1 RES1   0.0000
    13 N       34.6110  45.0181  -1.8996   N.ar      1 RES1   0.0000
    14 N       35.9083  44.8738  -2.1889   N.ar      1 RES1   0.0000
    15 C       36.8558  44.2651  -1.4257   C.ar      1 RES1   0.0000
    16 C       38.1104  44.8564  -1.2706   C.ar      1 RES1   0.0000
    17 C       39.0815  44.2363  -0.4830   C.ar      1 RES1   0.0000
    18 C       38.7979  43.0248   0.1496   C.ar      1 RES1   0.0000
    19 C       37.5442  42.4318  -0.0083   C.ar      1 RES1   0.0000
    20 C       36.5744  43.0502  -0.7986   C.ar      1 RES1   0.0000
    21 C       34.9462  46.6831  -5.2123   C.3       1 RES1   0.0000
    22 C       36.3423  47.2953  -5.5527   C.3       1 RES1   0.0000
    23 C       36.4094  47.5228  -7.0983   C.3       1 RES1   0.0000
    24 C       35.2293  48.3374  -7.7243   C.3       1 RES1   0.0000
    25 C       35.1585  48.0885  -9.2494   C.3       1 RES1   0.0000
    26 C       36.6143  48.5510  -9.6830   C.3       1 RES1   0.0000
    27 C       36.9531  49.3818 -10.9989   C.3       1 RES1   0.0000
    28 C       35.9141  50.4644 -11.1797   C.2       1 RES1   0.0000
    29 O       36.2017  51.6297 -10.9602   O.2       1 RES1   0.0000
    30 C       34.5140  50.1053 -11.5994   C.3       1 RES1   0.0000
    31 O       34.2239  50.7666 -12.8366   O.3       1 RES1   0.0000
    32 O       37.1117  48.9002 -12.3547   O.3       1 RES1   0.0000
    33 C       36.4949  47.2807 -10.6523   C.3       1 RES1   0.0000
    34 O       35.4054  49.7509  -7.5763   O.3       1 RES1   0.0000
    35 C       36.5252  48.5726  -4.6948   C.3       1 RES1   0.0000
    36 C       40.0653  45.9005  -5.3338   C.3       1 RES1   0.0000
    37 H1      38.6273  51.4540 -11.9481   H         1 RES1   0.0000
    38 H2      40.0582  51.0936 -10.9350   H         1 RES1   0.0000
    39 H3      39.6023  49.9809 -12.2499   H         1 RES1   0.0000
    40 H4      38.1273  50.5853  -9.6156   H         1 RES1   0.0000
    41 H5      39.4578  48.0603 -10.6153   H         1 RES1   0.0000
    42 H6      39.8077  48.9896  -9.1287   H         1 RES1   0.0000
    43 H7      38.1216  46.7619  -9.1948   H         1 RES1   0.0000
    44 H8      37.8579  49.1524  -7.3741   H         1 RES1   0.0000
    45 H9      39.9077  47.4531  -7.4148   H         1 RES1   0.0000
    46 H10     38.2964  44.9641  -3.7672   H         1 RES1   0.0000
    47 H11     32.9786  45.9833  -2.9585   H         1 RES1   0.0000
    48 H12     38.3297  45.7979  -1.7617   H         1 RES1   0.0000
    49 H13     40.0563  44.6957  -0.3622   H         1 RES1   0.0000
    50 H14     39.5515  42.5441   0.7634   H         1 RES1   0.0000
    51 H15     37.3238  41.4904   0.4829   H         1 RES1   0.0000
    52 H16     35.6023  42.5867  -0.9251   H         1 RES1   0.0000
    53 H17     34.1545  47.4449  -5.1703   H         1 RES1   0.0000
    54 H18     34.6751  45.9169  -5.9536   H         1 RES1   0.0000
    55 H19     36.3343  46.5067  -7.5148   H         1 RES1   0.0000
    56 H20     34.2513  48.0514  -7.3138   H         1 RES1   0.0000
    57 H21     34.7000  47.0874  -9.3218   H         1 RES1   0.0000
    58 H22     34.4367  48.8059  -9.6686   H         1 RES1   0.0000
    59 H23     34.4010  49.0234 -11.7436   H         1 RES1   0.0000
    60 H24     33.7976  50.4510 -10.8388   H         1 RES1   0.0000
    61 H25     34.0334  50.1323 -13.5187   H         1 RES1   0.0000
    62 H26     36.3151  48.6164 -12.7874   H         1 RES1   0.0000
    63 H27     37.4008  47.0299 -11.2206   H         1 RES1   0.0000
    64 H28     36.3239  46.3009 -10.1697   H         1 RES1   0.0000
    65 H29     35.6770  47.4035 -11.3857   H         1 RES1   0.0000
    66 H30     35.5526  50.0136  -6.6792   H         1 RES1   0.0000
    67 H31     36.7052  48.2748  -3.6509   H         1 RES1   0.0000
    68 H32     35.6297  49.2067  -4.7007   H         1 RES1   0.0000
    69 H33     37.3913  49.1539  -5.0413   H         1 RES1   0.0000
    70 H34     39.9498  44.8108  -5.4315   H         1 RES1   0.0000
    71 H35     40.9655  46.1989  -5.8906   H         1 RES1   0.0000
    72 H36     40.2240  46.1603  -4.2764   H         1 RES1   0.0000
    73 ****    34.1528  44.6777  -1.0785   Du        1 RES1   0.0000
    74 ****    37.1253  51.8688 -10.6605   Du        1 RES1   0.0000
    75 ****    35.5139  52.3456 -11.0800   Du        1 RES1   0.0000
    76 ****    35.0144  51.3150 -13.1094   Du        1 RES1   0.0000
    77 ****    33.4312  51.3633 -12.7122   Du        1 RES1   0.0000
    78 ****    37.7427  48.1247 -12.3333   Du        1 RES1   0.0000
    79 ****    37.5100  49.6390 -12.8984   Du        1 RES1   0.0000
    80 ****    34.5836  50.2112  -7.9123   Du        1 RES1   0.0000
    81 ****    36.1929  50.0330  -8.1242   Du        1 RES1   0.0000
@<TRIPOS>BOND
     1     1     2    1
     2     2     3    1
     3     3     4    1
     4     4     5    1
     5     5     6    1
     6     6     7    2
     7     7     8    1
     8     8     9    2
     9     9    10    1
    10    10    11   ar
    11    11    12   ar
    12    12    13   ar
    13    13    14   ar
    14    10    14   ar
    15    14    15    1
    16    15    16   ar
    17    16    17   ar
    18    17    18   ar
    19    18    19   ar
    20    19    20   ar
    21    15    20   ar
    22    11    21    1
    23    21    22    1
    24     8    22    1
    25    22    23    1
    26     5    23    1
    27    23    24    1
    28    24    25    1
    29    25    26    1
    30     4    26    1
    31    26    27    1
    32     2    27    1
    33    27    28    1
    34    28    29    2
    35    28    30    1
    36    30    31    1
    37    27    32    1
    38    26    33    1
    39    24    34    1
    40    22    35    1
    41     7    36    1
    42     1    37    1
    43     1    38    1
    44     1    39    1
    45     2    40    1
    46     3    41    1
    47     3    42    1
    48     4    43    1
    49     5    44    1
    50     6    45    1
    51     9    46    1
    52    12    47    1
    53    16    48    1
    54    17    49    1
    55    18    50    1
    56    19    51    1
    57    20    52    1
    58    21    53    1
    59    21    54    1
    60    23    55    1
    61    24    56    1
    62    25    57    1
    63    25    58    1
    64    30    59    1
    65    30    60    1
    66    31    61    1
    67    32    62    1
    68    33    63    1
    69    33    64    1
    70    33    65    1
    71    34    66    1
    72    35    67    1
    73    35    68    1
    74    35    69    1
    75    36    70    1
    76    36    71    1
    77    36    72    1
    78    13    73    1
    79    29    74    1
    80    29    75    1
    81    31    76    1
    82    31    77    1
    83    32    78    1
    84    32    79    1
    85    34    80    1
    86    34    81    1
@<TRIPOS>SUBSTRUCTURE
     1 RES1        1 GROUP             0 ****  ****    0  
@<TRIPOS>MOLECULE
47.2054
    81    86     1     0     0
SMALL
NO_CHARGES
****
Generated from the CSD

@<TRIPOS>ATOM
     1 C       27.3363  49.3728  -3.4623   C.3       1 RES1   0.0000
     2 C       28.1687  48.1178  -3.1082   C.3       1 RES1   0.0000
     3 C       29.6933  48.3056  -3.3377   C.3       1 RES1   0.0000
     4 C       30.3319  46.8874  -3.2840   C.3       1 RES1   0.0000
     5 C       30.9791  46.5205  -1.9242   C.3       1 RES1   0.0000
     6 C       32.2792  47.2716  -1.8457   C.2       1 RES1   0.0000
     7 C       33.4316  46.7366  -1.4301   C.2       1 RES1   0.0000
     8 C       33.5066  45.3361  -0.9609   C.2       1 RES1   0.0000
     9 C       34.7104  44.8232  -0.6621   C.2       1 RES1   0.0000
    10 C       34.7717  43.4088  -0.1529   C.ar      1 RES1   0.0000
    11 C       33.6964  42.5523  -0.2391   C.ar      1 RES1   0.0000
    12 C       34.1209  41.3663   0.3521   C.ar      1 RES1   0.0000
    13 N       35.4054  41.5207   0.7453   N.ar      1 RES1   0.0000
    14 N       35.7937  42.7619   0.4348   N.ar      1 RES1   0.0000
    15 C       37.0061  43.3275   0.6812   C.ar      1 RES1   0.0000
    16 C       38.1265  42.9151  -0.0414   C.ar      1 RES1   0.0000
    17 C       39.3701  43.4987   0.2059   C.ar      1 RES1   0.0000
    18 C       39.4930  44.4948   1.1759   C.ar      1 RES1   0.0000
    19 C       38.3730  44.9048   1.9010   C.ar      1 RES1   0.0000
    20 C       37.1303  44.3188   1.6560   C.ar      1 RES1   0.0000
    21 C       32.3968  42.9819  -0.8892   C.3       1 RES1   0.0000
    22 C       32.2222  44.5305  -0.7832   C.3       1 RES1   0.0000
    23 C       31.2001  44.9803  -1.8779   C.3       1 RES1   0.0000
    24 C       29.8312  44.2227  -1.8919   C.3       1 RES1   0.0000
    25 C       29.1312  44.4103  -3.2585   C.3       1 RES1   0.0000
    26 C       29.0365  45.9942  -3.3168   C.3       1 RES1   0.0000
    27 C       27.7846  46.8135  -3.8627   C.3       1 RES1   0.0000
    28 C       26.5147  46.1670  -3.3592   C.2       1 RES1   0.0000
    29 O       25.8737  46.6945  -2.4650   O.2       1 RES1   0.0000
    30 C       26.0546  44.8553  -3.9365   C.3       1 RES1   0.0000
    31 O       25.9753  43.8929  -2.8784   O.3       1 RES1   0.0000
    32 O       27.4333  47.1184  -5.2334   O.3       1 RES1   0.0000
    33 C       29.4007  45.7439  -4.8571   C.3       1 RES1   0.0000
    34 O       28.9144  44.7378  -0.9198   O.3       1 RES1   0.0000
    35 C       31.8116  44.8658   0.6728   C.3       1 RES1   0.0000
    36 C       34.6657  47.6071  -1.4295   C.3       1 RES1   0.0000
    37 H1      26.2651  49.1450  -3.3594   H         1 RES1   0.0000
    38 H2      27.5979  50.1793  -2.7611   H         1 RES1   0.0000
    39 H3      27.5332  49.7279  -4.4835   H         1 RES1   0.0000
    40 H4      28.0655  47.9499  -2.0268   H         1 RES1   0.0000
    41 H5      29.8497  48.7304  -4.3403   H         1 RES1   0.0000
    42 H6      30.1129  48.9966  -2.5922   H         1 RES1   0.0000
    43 H7      31.1707  46.8258  -3.9989   H         1 RES1   0.0000
    44 H8      30.3165  46.8386  -1.1060   H         1 RES1   0.0000
    45 H9      32.2696  48.3156  -2.1525   H         1 RES1   0.0000
    46 H10     35.6497  45.3627  -0.7556   H         1 RES1   0.0000
    47 H11     33.5240  40.4698   0.4743   H         1 RES1   0.0000
    48 H12     38.0301  42.1418  -0.7954   H         1 RES1   0.0000
    49 H13     40.2406  43.1784  -0.3557   H         1 RES1   0.0000
    50 H14     40.4586  44.9499   1.3664   H         1 RES1   0.0000
    51 H15     38.4684  45.6785   2.6548   H         1 RES1   0.0000
    52 H16     36.2614  44.6341   2.2230   H         1 RES1   0.0000
    53 H17     31.5782  42.4343  -0.4003   H         1 RES1   0.0000
    54 H18     32.4598  42.6768  -1.9442   H         1 RES1   0.0000
    55 H19     31.7014  44.7237  -2.8236   H         1 RES1   0.0000
    56 H20     29.9437  43.1401  -1.7427   H         1 RES1   0.0000
    57 H21     29.6847  43.7249  -3.9230   H         1 RES1   0.0000
    58 H22     28.1089  44.0135  -3.1638   H         1 RES1   0.0000
    59 H23     25.0667  44.9452  -4.4054   H         1 RES1   0.0000
    60 H24     26.7834  44.5007  -4.6812   H         1 RES1   0.0000
    61 H25     25.7464  43.0362  -3.2213   H         1 RES1   0.0000
    62 H26     26.9436  46.4465  -5.6928   H         1 RES1   0.0000
    63 H27     29.5772  46.6473  -5.4565   H         1 RES1   0.0000
    64 H28     30.3505  45.2176  -5.0646   H         1 RES1   0.0000
    65 H29     28.6141  45.1629  -5.3723   H         1 RES1   0.0000
    66 H30     28.6207  44.0819  -0.3041   H         1 RES1   0.0000
    67 H31     32.6870  44.7349   1.3263   H         1 RES1   0.0000
    68 H32     31.0261  44.1964   1.0458   H         1 RES1   0.0000
    69 H33     31.4754  45.9093   0.7523   H         1 RES1   0.0000
    70 H34     35.3886  47.2256  -2.1658   H         1 RES1   0.0000
    71 H35     34.4346  48.6507  -1.6883   H         1 RES1   0.0000
    72 H36     35.1231  47.6036  -0.4288   H         1 RES1   0.0000
    73 ****    35.9687  40.8254   1.1918   Du        1 RES1   0.0000
    74 ****    26.1886  47.5552  -2.0648   Du        1 RES1   0.0000
    75 ****    25.0336  46.2662  -2.1323   Du        1 RES1   0.0000
    76 ****    25.2774  44.1818  -2.2231   Du        1 RES1   0.0000
    77 ****    26.8615  43.8366  -2.4183   Du        1 RES1   0.0000
    78 ****    28.2808  47.2805  -5.7389   Du        1 RES1   0.0000
    79 ****    26.8819  47.9527  -5.2309   Du        1 RES1   0.0000
    80 ****    28.1169  45.1060  -1.3977   Du        1 RES1   0.0000
    81 ****    29.3668  45.4712  -0.4124   Du        1 RES1   0.0000
@<TRIPOS>BOND
     1     1     2    1
     2     2     3    1
     3     3     4    1
     4     4     5    1
     5     5     6    1
     6     6     7    2
     7     7     8    1
     8     8     9    2
     9     9    10    1
    10    10    11   ar
    11    11    12   ar
    12    12    13   ar
    13    13    14   ar
    14    10    14   ar
    15    14    15    1
    16    15    16   ar
    17    16    17   ar
    18    17    18   ar
    19    18    19   ar
    20    19    20   ar
    21    15    20   ar
    22    11    21    1
    23    21    22    1
    24     8    22    1
    25    22    23    1
    26     5    23    1
    27    23    24    1
    28    24    25    1
    29    25    26    1
    30     4    26    1
    31    26    27    1
    32     2    27    1
    33    27    28    1
    34    28    29    2
    35    28    30    1
    36    30    31    1
    37    27    32    1
    38    26    33    1
    39    24    34    1
    40    22    35    1
    41     7    36    1
    42     1    37    1
    43     1    38    1
    44     1    39    1
    45     2    40    1
    46     3    41    1
    47     3    42    1
    48     4    43    1
    49     5    44    1
    50     6    45    1
    51     9    46    1
    52    12    47    1
    53    16    48    1
    54    17    49    1
    55    18    50    1
    56    19    51    1
    57    20    52    1
    58    21    53    1
    59    21    54    1
    60    23    55    1
    61    24    56    1
    62    25    57    1
    63    25    58    1
    64    30    59    1
    65    30    60    1
    66    31    61    1
    67    32    62    1
    68    33    63    1
    69    33    64    1
    70    33    65    1
    71    34    66    1
    72    35    67    1
    73    35    68    1
    74    35    69    1
    75    36    70    1
    76    36    71    1
    77    36    72    1
    78    13    73    1
    79    29    74    1
    80    29    75    1
    81    31    76    1
    82    31    77    1
    83    32    78    1
    84    32    79    1
    85    34    80    1
    86    34    81    1
@<TRIPOS>SUBSTRUCTURE
     1 RES1        1 GROUP             0 ****  ****    0  
@<TRIPOS>MOLECULE
46.9974
    81    86     1     0     0
SMALL
NO_CHARGES
****
Generated from the CSD

@<TRIPOS>ATOM
     1 C       27.6145  49.4737  -3.7759   C.3       1 RES1   0.0000
     2 C       28.3983  48.2191  -3.3232   C.3       1 RES1   0.0000
     3 C       29.9251  48.3176  -3.5906   C.3       1 RES1   0.0000
     4 C       30.5028  46.8825  -3.4197   C.3       1 RES1   0.0000
     5 C       31.1584  46.6090  -2.0421   C.3       1 RES1   0.0000
     6 C       32.4910  47.3053  -2.0498   C.2       1 RES1   0.0000
     7 C       33.6266  46.7582  -1.6048   C.2       1 RES1   0.0000
     8 C       33.6497  45.4029  -1.0135   C.2       1 RES1   0.0000
     9 C       34.8355  44.8652  -0.6876   C.2       1 RES1   0.0000
    10 C       34.8450  43.5002  -0.0551   C.ar      1 RES1   0.0000
    11 C       33.7323  42.6883  -0.0489   C.ar      1 RES1   0.0000
    12 C       34.1160  41.5415   0.6396   C.ar      1 RES1   0.0000
    13 N       35.4130  41.6726   0.9988   N.ar      1 RES1   0.0000
    14 N       35.8487  42.8628   0.5732   N.ar      1 RES1   0.0000
    15 C       37.0888  43.3933   0.7505   C.ar      1 RES1   0.0000
    16 C       37.3015  44.3489   1.7451   C.ar      1 RES1   0.0000
    17 C       38.5745  44.8898   1.9324   C.ar      1 RES1   0.0000
    18 C       39.6348  44.4747   1.1251   C.ar      1 RES1   0.0000
    19 C       39.4213  43.5214   0.1282   C.ar      1 RES1   0.0000
    20 C       38.1476  42.9832  -0.0613   C.ar      1 RES1   0.0000
    21 C       32.4407  43.1162  -0.7159   C.3       1 RES1   0.0000
    22 C       32.3352  44.6743  -0.7461   C.3       1 RES1   0.0000
    23 C       31.3135  45.0707  -1.8616   C.3       1 RES1   0.0000
    24 C       29.9131  44.3767  -1.7881   C.3       1 RES1   0.0000
    25 C       29.1968  44.4735  -3.1558   C.3       1 RES1   0.0000
    26 C       29.1697  46.0487  -3.3539   C.3       1 RES1   0.0000
    27 C       27.9444  46.8716  -3.9525   C.3       1 RES1   0.0000
    28 C       26.6573  46.3295  -3.3750   C.2       1 RES1   0.0000
    29 O       26.0512  46.9668  -2.5293   O.2       1 RES1   0.0000
    30 C       26.1366  44.9884  -3.8174   C.3       1 RES1   0.0000
    31 O       24.8807  45.1812  -4.4791   O.3       1 RES1   0.0000
    32 O       27.5815  47.0692  -5.3398   O.3       1 RES1   0.0000
    33 C       29.4943  45.6470  -4.8707   C.3       1 RES1   0.0000
    34 O       29.0375  45.0163  -0.8527   O.3       1 RES1   0.0000
    35 C       31.9662  45.1553   0.6799   C.3       1 RES1   0.0000
    36 C       34.8970  47.5694  -1.6998   C.3       1 RES1   0.0000
    37 H1      26.5366  49.3040  -3.6375   H         1 RES1   0.0000
    38 H2      27.9236  50.3266  -3.1533   H         1 RES1   0.0000
    39 H3      27.8078  49.7278  -4.8275   H         1 RES1   0.0000
    40 H4      28.3079  48.1524  -2.2297   H         1 RES1   0.0000
    41 H5      30.0813  48.6445  -4.6293   H         1 RES1   0.0000
    42 H6      30.3878  49.0524  -2.9159   H         1 RES1   0.0000
    43 H7      31.3248  46.7205  -4.1383   H         1 RES1   0.0000
    44 H8      30.5253  47.0276  -1.2461   H         1 RES1   0.0000
    45 H9      32.5208  48.3173  -2.4485   H         1 RES1   0.0000
    46 H10     35.7953  45.3518  -0.8426   H         1 RES1   0.0000
    47 H11     33.4833  40.6869   0.8500   H         1 RES1   0.0000
    48 H12     36.4775  44.6703   2.3724   H         1 RES1   0.0000
    49 H13     38.7399  45.6321   2.7053   H         1 RES1   0.0000
    50 H14     40.6243  44.8931   1.2721   H         1 RES1   0.0000
    51 H15     40.2449  43.1990  -0.4993   H         1 RES1   0.0000
    52 H16     37.9811  42.2463  -0.8392   H         1 RES1   0.0000
    53 H17     31.6084  42.6512  -0.1683   H         1 RES1   0.0000
    54 H18     32.4710  42.7164  -1.7402   H         1 RES1   0.0000
    55 H19     31.7857  44.7092  -2.7879   H         1 RES1   0.0000
    56 H20     29.9815  43.3076  -1.5445   H         1 RES1   0.0000
    57 H21     29.7079  43.7080  -3.7643   H         1 RES1   0.0000
    58 H22     28.1603  44.1328  -3.0112   H         1 RES1   0.0000
    59 H23     26.8286  44.4961  -4.5122   H         1 RES1   0.0000
    60 H24     25.9770  44.3435  -2.9399   H         1 RES1   0.0000
    61 H25     24.5252  44.3494  -4.7717   H         1 RES1   0.0000
    62 H26     28.2567  47.4432  -5.8935   H         1 RES1   0.0000
    63 H27     29.6986  46.4849  -5.5509   H         1 RES1   0.0000
    64 H28     30.4164  45.0624  -5.0441   H         1 RES1   0.0000
    65 H29     28.6739  45.0583  -5.3206   H         1 RES1   0.0000
    66 H30     28.8428  44.4770  -0.0998   H         1 RES1   0.0000
    67 H31     32.8471  45.0438   1.3298   H         1 RES1   0.0000
    68 H32     31.1596  44.5573   1.1226   H         1 RES1   0.0000
    69 H33     31.6770  46.2157   0.6708   H         1 RES1   0.0000
    70 H34     35.5891  47.0923  -2.4095   H         1 RES1   0.0000
    71 H35     34.7064  48.5953  -2.0474   H         1 RES1   0.0000
    72 H36     35.3722  47.6341  -0.7096   H         1 RES1   0.0000
    73 ****    35.9538  40.9952   1.4975   Du        1 RES1   0.0000
    74 ****    26.4061  47.8483  -2.2179   Du        1 RES1   0.0000
    75 ****    25.1996  46.6076  -2.1476   Du        1 RES1   0.0000
    76 ****    25.0144  45.7779  -5.2703   Du        1 RES1   0.0000
    77 ****    24.2371  45.6086  -3.8443   Du        1 RES1   0.0000
    78 ****    26.7898  47.6796  -5.3662   Du        1 RES1   0.0000
    79 ****    27.3294  46.1798  -5.7210   Du        1 RES1   0.0000
    80 ****    28.1798  45.2356  -1.3178   Du        1 RES1   0.0000
    81 ****    29.4706  45.8604  -0.5367   Du        1 RES1   0.0000
@<TRIPOS>BOND
     1     1     2    1
     2     2     3    1
     3     3     4    1
     4     4     5    1
     5     5     6    1
     6     6     7    2
     7     7     8    1
     8     8     9    2
     9     9    10    1
    10    10    11   ar
    11    11    12   ar
    12    12    13   ar
    13    13    14   ar
    14    10    14   ar
    15    14    15    1
    16    15    16   ar
    17    16    17   ar
    18    17    18   ar
    19    18    19   ar
    20    19    20   ar
    21    15    20   ar
    22    11    21    1
    23    21    22    1
    24     8    22    1
    25    22    23    1
    26     5    23    1
    27    23    24    1
    28    24    25    1
    29    25    26    1
    30     4    26    1
    31    26    27    1
    32     2    27    1
    33    27    28    1
    34    28    29    2
    35    28    30    1
    36    30    31    1
    37    27    32    1
    38    26    33    1
    39    24    34    1
    40    22    35    1
    41     7    36    1
    42     1    37    1
    43     1    38    1
    44     1    39    1
    45     2    40    1
    46     3    41    1
    47     3    42    1
    48     4    43    1
    49     5    44    1
    50     6    45    1
    51     9    46    1
    52    12    47    1
    53    16    48    1
    54    17    49    1
    55    18    50    1
    56    19    51    1
    57    20    52    1
    58    21    53    1
    59    21    54    1
    60    23    55    1
    61    24    56    1
    62    25    57    1
    63    25    58    1
    64    30    59    1
    65    30    60    1
    66    31    61    1
    67    32    62    1
    68    33    63    1
    69    33    64    1
    70    33    65    1
    71    34    66    1
    72    35    67    1
    73    35    68    1
    74    35    69    1
    75    36    70    1
    76    36    71    1
    77    36    72    1
    78    13    73    1
    79    29    74    1
    80    29    75    1
    81    31    76    1
    82    31    77    1
    83    32    78    1
    84    32    79    1
    85    34    80    1
    86    34    81    1
@<TRIPOS>SUBSTRUCTURE
     1 RES1        1 GROUP             0 ****  ****    0  
@<TRIPOS>MOLECULE
46.6881
    81    86     1     0     0
SMALL
NO_CHARGES
****
Generated from the CSD

@<TRIPOS>ATOM
     1 C       26.7072  46.4532   1.6590   C.3       1 RES1   0.0000
     2 C       27.9857  46.0168   0.9051   C.3       1 RES1   0.0000
     3 C       29.1861  46.9784   1.1214   C.3       1 RES1   0.0000
     4 C       30.2505  46.6143   0.0459   C.3       1 RES1   0.0000
     5 C       31.3956  45.7008   0.5526   C.3       1 RES1   0.0000
     6 C       32.3080  46.5656   1.3773   C.2       1 RES1   0.0000
     7 C       33.6421  46.5423   1.2949   C.2       1 RES1   0.0000
     8 C       34.3425  45.6047   0.3908   C.2       1 RES1   0.0000
     9 C       35.6754  45.7050   0.2698   C.2       1 RES1   0.0000
    10 C       36.3817  44.7242  -0.6259   C.ar      1 RES1   0.0000
    11 C       35.7006  43.9230  -1.5155   C.ar      1 RES1   0.0000
    12 C       36.6753  43.1453  -2.1331   C.ar      1 RES1   0.0000
    13 N       37.8824  43.5000  -1.6374   N.ar      1 RES1   0.0000
    14 N       37.6964  44.4589  -0.7243   N.ar      1 RES1   0.0000
    15 C       38.6508  45.0728   0.0260   C.ar      1 RES1   0.0000
    16 C       38.9505  46.4179  -0.1936   C.ar      1 RES1   0.0000
    17 C       39.9252  47.0510   0.5794   C.ar      1 RES1   0.0000
    18 C       40.5999  46.3385   1.5721   C.ar      1 RES1   0.0000
    19 C       40.3023  44.9923   1.7895   C.ar      1 RES1   0.0000
    20 C       39.3302  44.3586   1.0142   C.ar      1 RES1   0.0000
    21 C       34.1954  44.0141  -1.6653   C.3       1 RES1   0.0000
    22 C       33.5474  44.5251  -0.3392   C.3       1 RES1   0.0000
    23 C       32.1321  45.0969  -0.6787   C.3       1 RES1   0.0000
    24 C       31.1828  44.1477  -1.4823   C.3       1 RES1   0.0000
    25 C       30.0502  44.9641  -2.1484   C.3       1 RES1   0.0000
    26 C       29.4060  45.6545  -0.8719   C.3       1 RES1   0.0000
    27 C       27.8440  45.8564  -0.6350   C.3       1 RES1   0.0000
    28 C       27.1153  44.6007  -1.0547   C.2       1 RES1   0.0000
    29 O       26.5603  43.9079  -0.2177   O.2       1 RES1   0.0000
    30 C       27.0995  44.1841  -2.5010   C.3       1 RES1   0.0000
    31 O       27.6727  42.8754  -2.6061   O.3       1 RES1   0.0000
    32 O       26.9767  46.8877  -1.1636   O.3       1 RES1   0.0000
    33 C       29.3015  46.9051  -1.8683   C.3       1 RES1   0.0000
    34 O       30.5225  43.1972  -0.6388   O.3       1 RES1   0.0000
    35 C       33.5540  43.3553   0.6769   C.3       1 RES1   0.0000
    36 C       34.4297  47.4890   2.1691   C.3       1 RES1   0.0000
    37 H1      25.8773  45.7810   1.3958   H         1 RES1   0.0000
    38 H2      26.8938  46.3819   2.7410   H         1 RES1   0.0000
    39 H3      26.4206  47.4885   1.4271   H         1 RES1   0.0000
    40 H4      28.3107  45.0596   1.3368   H         1 RES1   0.0000
    41 H5      28.8462  48.0110   0.9526   H         1 RES1   0.0000
    42 H6      29.5658  46.8955   2.1500   H         1 RES1   0.0000
    43 H7      30.7723  47.5270  -0.2903   H         1 RES1   0.0000
    44 H8      30.9753  44.9008   1.1796   H         1 RES1   0.0000
    45 H9      31.8408  47.2526   2.0801   H         1 RES1   0.0000
    46 H10     36.2859  46.4448   0.7819   H         1 RES1   0.0000
    47 H11     36.4976  42.3859  -2.8858   H         1 RES1   0.0000
    48 H12     38.4255  46.9709  -0.9646   H         1 RES1   0.0000
    49 H13     40.1580  48.0962   0.4089   H         1 RES1   0.0000
    50 H14     41.3553  46.8309   2.1743   H         1 RES1   0.0000
    51 H15     40.8266  44.4386   2.5606   H         1 RES1   0.0000
    52 H16     39.1029  43.3113   1.1800   H         1 RES1   0.0000
    53 H17     33.8248  43.0206  -1.9561   H         1 RES1   0.0000
    54 H18     34.0056  44.7267  -2.4816   H         1 RES1   0.0000
    55 H19     32.3472  45.9480  -1.3428   H         1 RES1   0.0000
    56 H20     31.7013  43.6132  -2.2900   H         1 RES1   0.0000
    57 H21     30.5512  45.4350  -3.0114   H         1 RES1   0.0000
    58 H22     29.3184  44.2473  -2.5509   H         1 RES1   0.0000
    59 H23     26.0782  44.1542  -2.9011   H         1 RES1   0.0000
    60 H24     27.7064  44.8833  -3.0961   H         1 RES1   0.0000
    61 H25     26.9921  42.2183  -2.7005   H         1 RES1   0.0000
    62 H26     26.0457  46.7026  -1.1263   H         1 RES1   0.0000
    63 H27     28.9492  47.8430  -1.4181   H         1 RES1   0.0000
    64 H28     30.2479  47.2742  -2.3043   H         1 RES1   0.0000
    65 H29     28.6378  46.6886  -2.7253   H         1 RES1   0.0000
    66 H30     30.0548  43.6008   0.0781   H         1 RES1   0.0000
    67 H31     34.5851  43.1960   1.0262   H         1 RES1   0.0000
    68 H32     33.2159  42.4138   0.2260   H         1 RES1   0.0000
    69 H33     32.9279  43.5928   1.5486   H         1 RES1   0.0000
    70 H34     34.9519  48.2258   1.5408   H         1 RES1   0.0000
    71 H35     33.7838  48.0366   2.8708   H         1 RES1   0.0000
    72 H36     35.1647  46.9239   2.7616   H         1 RES1   0.0000
    73 ****    38.7634  43.1116  -1.9075   Du        1 RES1   0.0000
    74 ****    26.5874  44.1709   0.7468   Du        1 RES1   0.0000
    75 ****    26.0782  43.0771  -0.4960   Du        1 RES1   0.0000
    76 ****    28.2039  42.6822  -1.7811   Du        1 RES1   0.0000
    77 ****    28.2738  42.8431  -3.4047   Du        1 RES1   0.0000
    78 ****    27.2225  47.0344  -2.1218   Du        1 RES1   0.0000
    79 ****    27.1442  47.7258  -0.6444   Du        1 RES1   0.0000
    80 ****    31.2088  42.5753  -0.2616   Du        1 RES1   0.0000
    81 ****    29.8710  42.6785  -1.1924   Du        1 RES1   0.0000
@<TRIPOS>BOND
     1     1     2    1
     2     2     3    1
     3     3     4    1
     4     4     5    1
     5     5     6    1
     6     6     7    2
     7     7     8    1
     8     8     9    2
     9     9    10    1
    10    10    11   ar
    11    11    12   ar
    12    12    13   ar
    13    13    14   ar
    14    10    14   ar
    15    14    15    1
    16    15    16   ar
    17    16    17   ar
    18    17    18   ar
    19    18    19   ar
    20    19    20   ar
    21    15    20   ar
    22    11    21    1
    23    21    22    1
    24     8    22    1
    25    22    23    1
    26     5    23    1
    27    23    24    1
    28    24    25    1
    29    25    26    1
    30     4    26    1
    31    26    27    1
    32     2    27    1
    33    27    28    1
    34    28    29    2
    35    28    30    1
    36    30    31    1
    37    27    32    1
    38    26    33    1
    39    24    34    1
    40    22    35    1
    41     7    36    1
    42     1    37    1
    43     1    38    1
    44     1    39    1
    45     2    40    1
    46     3    41    1
    47     3    42    1
    48     4    43    1
    49     5    44    1
    50     6    45    1
    51     9    46    1
    52    12    47    1
    53    16    48    1
    54    17    49    1
    55    18    50    1
    56    19    51    1
    57    20    52    1
    58    21    53    1
    59    21    54    1
    60    23    55    1
    61    24    56    1
    62    25    57    1
    63    25    58    1
    64    30    59    1
    65    30    60    1
    66    31    61    1
    67    32    62    1
    68    33    63    1
    69    33    64    1
    70    33    65    1
    71    34    66    1
    72    35    67    1
    73    35    68    1
    74    35    69    1
    75    36    70    1
    76    36    71    1
    77    36    72    1
    78    13    73    1
    79    29    74    1
    80    29    75    1
    81    31    76    1
    82    31    77    1
    83    32    78    1
    84    32    79    1
    85    34    80    1
    86    34    81    1
@<TRIPOS>SUBSTRUCTURE
     1 RES1        1 GROUP             0 ****  ****    0  
@<TRIPOS>MOLECULE
45.1562
    81    86     1     0     0
SMALL
NO_CHARGES
****
Generated from the CSD

@<TRIPOS>ATOM
     1 C       26.7002  47.6767  -0.7701   C.3       1 RES1   0.0000
     2 C       27.9593  46.8215  -1.0472   C.3       1 RES1   0.0000
     3 C       29.2886  47.5945  -0.8286   C.3       1 RES1   0.0000
     4 C       30.4157  46.7385  -1.4760   C.3       1 RES1   0.0000
     5 C       31.2165  45.8628  -0.4788   C.3       1 RES1   0.0000
     6 C       32.1407  46.7866   0.2648   C.2       1 RES1   0.0000
     7 C       33.4278  46.5230   0.5110   C.2       1 RES1   0.0000
     8 C       34.0462  45.2453   0.0962   C.2       1 RES1   0.0000
     9 C       35.3671  45.0849   0.2718   C.2       1 RES1   0.0000
    10 C       35.9799  43.7684  -0.1217   C.ar      1 RES1   0.0000
    11 C       35.3031  42.8459  -0.8886   C.ar      1 RES1   0.0000
    12 C       36.1699  41.7648  -1.0161   C.ar      1 RES1   0.0000
    13 N       37.3189  42.0595  -0.3670   N.ar      1 RES1   0.0000
    14 N       37.1966  43.2769   0.1722   N.ar      1 RES1   0.0000
    15 C       38.1173  43.9359   0.9263   C.ar      1 RES1   0.0000
    16 C       39.4585  43.9404   0.5407   C.ar      1 RES1   0.0000
    17 C       40.4035  44.6211   1.3099   C.ar      1 RES1   0.0000
    18 C       40.0070  45.2974   2.4648   C.ar      1 RES1   0.0000
    19 C       38.6661  45.2901   2.8522   C.ar      1 RES1   0.0000
    20 C       37.7219  44.6066   2.0848   C.ar      1 RES1   0.0000
    21 C       33.9082  43.1261  -1.4104   C.3       1 RES1   0.0000
    22 C       33.1691  44.1323  -0.4717   C.3       1 RES1   0.0000
    23 C       32.0026  44.7860  -1.2824   C.3       1 RES1   0.0000
    24 C       31.0203  43.7961  -1.9917   C.3       1 RES1   0.0000
    25 C       30.2377  44.5281  -3.1073   C.3       1 RES1   0.0000
    26 C       29.5515  45.6852  -2.2638   C.3       1 RES1   0.0000
    27 C       28.0591  46.2018  -2.4699   C.3       1 RES1   0.0000
    28 C       27.1509  45.0130  -2.6843   C.2       1 RES1   0.0000
    29 O       26.8305  44.6852  -3.8150   O.2       1 RES1   0.0000
    30 C       26.6136  44.2501  -1.5032   C.3       1 RES1   0.0000
    31 O       27.3974  43.0635  -1.3305   O.3       1 RES1   0.0000
    32 O       27.5548  47.1356  -3.4543   O.3       1 RES1   0.0000
    33 C       29.9102  46.5507  -3.5637   C.3       1 RES1   0.0000
    34 O       30.0239  43.2854  -1.0988   O.3       1 RES1   0.0000
    35 C       32.7314  43.3643   0.8009   C.3       1 RES1   0.0000
    36 C       34.2423  47.5593   1.2483   C.3       1 RES1   0.0000
    37 H1      25.7996  47.0990  -1.0250   H         1 RES1   0.0000
    38 H2      26.6719  47.9262   0.3012   H         1 RES1   0.0000
    39 H3      26.7008  48.6153  -1.3417   H         1 RES1   0.0000
    40 H4      27.9778  46.0135  -0.3022   H         1 RES1   0.0000
    41 H5      29.2264  48.5594  -1.3534   H         1 RES1   0.0000
    42 H6      29.4520  47.7849   0.2420   H         1 RES1   0.0000
    43 H7      31.1813  47.3987  -1.9190   H         1 RES1   0.0000
    44 H8      30.5221  45.3846   0.2275   H         1 RES1   0.0000
    45 H9      31.7245  47.7284   0.6172   H         1 RES1   0.0000
    46 H10     36.0289  45.8407   0.6876   H         1 RES1   0.0000
    47 H11     35.9606  40.8437  -1.5477   H         1 RES1   0.0000
    48 H12     39.7657  43.4154  -0.3570   H         1 RES1   0.0000
    49 H13     41.4456  44.6248   1.0103   H         1 RES1   0.0000
    50 H14     40.7407  45.8283   3.0611   H         1 RES1   0.0000
    51 H15     38.3579  45.8153   3.7495   H         1 RES1   0.0000
    52 H16     36.6810  44.5969   2.3889   H         1 RES1   0.0000
    53 H17     33.3798  42.1655  -1.4927   H         1 RES1   0.0000
    54 H18     34.0317  43.5608  -2.4133   H         1 RES1   0.0000
    55 H19     32.5185  45.3333  -2.0861   H         1 RES1   0.0000
    56 H20     31.5387  42.9549  -2.4719   H         1 RES1   0.0000
    57 H21     30.9764  44.6107  -3.9227   H         1 RES1   0.0000
    58 H22     29.4454  43.8484  -3.4562   H         1 RES1   0.0000
    59 H23     26.6658  44.8437  -0.5819   H         1 RES1   0.0000
    60 H24     25.5695  43.9581  -1.6930   H         1 RES1   0.0000
    61 H25     28.1062  43.0353  -1.9635   H         1 RES1   0.0000
    62 H26     26.9483  46.7761  -4.0909   H         1 RES1   0.0000
    63 H27     29.7055  47.6273  -3.4890   H         1 RES1   0.0000
    64 H28     30.9773  46.6029  -3.8477   H         1 RES1   0.0000
    65 H29     29.3766  46.1817  -4.4587   H         1 RES1   0.0000
    66 H30     30.0645  42.3453  -0.9977   H         1 RES1   0.0000
    67 H31     33.6215  43.1608   1.4149   H         1 RES1   0.0000
    68 H32     32.2741  42.3956   0.5628   H         1 RES1   0.0000
    69 H33     32.0315  43.9661   1.3977   H         1 RES1   0.0000
    70 H34     35.0202  47.9617   0.5825   H         1 RES1   0.0000
    71 H35     33.6236  48.3994   1.5961   H         1 RES1   0.0000
    72 H36     34.7140  47.1026   2.1313   H         1 RES1   0.0000
    73 ****    38.1226  41.4682  -0.3015   Du        1 RES1   0.0000
    74 ****    27.1688  45.2034  -4.6006   Du        1 RES1   0.0000
    75 ****    26.2296  43.8985  -3.9562   Du        1 RES1   0.0000
    76 ****    26.8125  42.2622  -1.4562   Du        1 RES1   0.0000
    77 ****    27.7809  43.0546  -0.4070   Du        1 RES1   0.0000
    78 ****    28.3374  47.5090  -3.9525   Du        1 RES1   0.0000
    79 ****    27.0872  47.8730  -2.9669   Du        1 RES1   0.0000
    80 ****    29.1218  43.5288  -1.4553   Du        1 RES1   0.0000
    81 ****    30.1530  43.7082  -0.2018   Du        1 RES1   0.0000
@<TRIPOS>BOND
     1     1     2    1
     2     2     3    1
     3     3     4    1
     4     4     5    1
     5     5     6    1
     6     6     7    2
     7     7     8    1
     8     8     9    2
     9     9    10    1
    10    10    11   ar
    11    11    12   ar
    12    12    13   ar
    13    13    14   ar
    14    10    14   ar
    15    14    15    1
    16    15    16   ar
    17    16    17   ar
    18    17    18   ar
    19    18    19   ar
    20    19    20   ar
    21    15    20   ar
    22    11    21    1
    23    21    22    1
    24     8    22    1
    25    22    23    1
    26     5    23    1
    27    23    24    1
    28    24    25    1
    29    25    26    1
    30     4    26    1
    31    26    27    1
    32     2    27    1
    33    27    28    1
    34    28    29    2
    35    28    30    1
    36    30    31    1
    37    27    32    1
    38    26    33    1
    39    24    34    1
    40    22    35    1
    41     7    36    1
    42     1    37    1
    43     1    38    1
    44     1    39    1
    45     2    40    1
    46     3    41    1
    47     3    42    1
    48     4    43    1
    49     5    44    1
    50     6    45    1
    51     9    46    1
    52    12    47    1
    53    16    48    1
    54    17    49    1
    55    18    50    1
    56    19    51    1
    57    20    52    1
    58    21    53    1
    59    21    54    1
    60    23    55    1
    61    24    56    1
    62    25    57    1
    63    25    58    1
    64    30    59    1
    65    30    60    1
    66    31    61    1
    67    32    62    1
    68    33    63    1
    69    33    64    1
    70    33    65    1
    71    34    66    1
    72    35    67    1
    73    35    68    1
    74    35    69    1
    75    36    70    1
    76    36    71    1
    77    36    72    1
    78    13    73    1
    79    29    74    1
    80    29    75    1
    81    31    76    1
    82    31    77    1
    83    32    78    1
    84    32    79    1
    85    34    80    1
    86    34    81    1
@<TRIPOS>SUBSTRUCTURE
     1 RES1        1 GROUP             0 ****  ****    0  
@<TRIPOS>MOLECULE
44.6899
    81    86     1     0     0
SMALL
NO_CHARGES
****
Generated from the CSD

@<TRIPOS>ATOM
     1 C       25.2884  43.7493  -1.5730   C.3       1 RES1   0.0000
     2 C       26.6608  44.3196  -2.0025   C.3       1 RES1   0.0000
     3 C       27.7184  44.3006  -0.8651   C.3       1 RES1   0.0000
     4 C       28.8932  45.2088  -1.3313   C.3       1 RES1   0.0000
     5 C       30.1004  44.4461  -1.9341   C.3       1 RES1   0.0000
     6 C       30.8409  43.8257  -0.7819   C.2       1 RES1   0.0000
     7 C       32.1705  43.8463  -0.6453   C.2       1 RES1   0.0000
     8 C       33.0414  44.4610  -1.6703   C.2       1 RES1   0.0000
     9 C       34.3579  44.5496  -1.4243   C.2       1 RES1   0.0000
    10 C       35.2393  45.1452  -2.4882   C.ar      1 RES1   0.0000
    11 C       34.7249  45.8350  -3.5637   C.ar      1 RES1   0.0000
    12 C       35.8277  46.2009  -4.3293   C.ar      1 RES1   0.0000
    13 N       36.9447  45.7608  -3.7072   N.ar      1 RES1   0.0000
    14 N       36.5800  45.1221  -2.5906   N.ar      1 RES1   0.0000
    15 C       37.3974  44.5098  -1.6920   C.ar      1 RES1   0.0000
    16 C       38.5611  45.1486  -1.2614   C.ar      1 RES1   0.0000
    17 C       39.3978  44.5244  -0.3349   C.ar      1 RES1   0.0000
    18 C       39.0705  43.2614   0.1611   C.ar      1 RES1   0.0000
    19 C       37.9083  42.6212  -0.2721   C.ar      1 RES1   0.0000
    20 C       37.0736  43.2439  -1.2011   C.ar      1 RES1   0.0000
    21 C       33.2343  46.0628  -3.7140   C.3       1 RES1   0.0000
    22 C       32.4362  44.9317  -2.9904   C.3       1 RES1   0.0000
    23 C       30.9905  45.4588  -2.7122   C.3       1 RES1   0.0000
    24 C       30.2221  46.0393  -3.9453   C.3       1 RES1   0.0000
    25 C       29.0504  46.9318  -3.4726   C.3       1 RES1   0.0000
    26 C       28.2381  45.8931  -2.5881   C.3       1 RES1   0.0000
    27 C       26.6502  45.7763  -2.5463   C.3       1 RES1   0.0000
    28 C       26.1096  45.9005  -3.9522   C.2       1 RES1   0.0000
    29 O       25.6116  44.9322  -4.5028   O.2       1 RES1   0.0000
    30 C       26.2129  47.2092  -4.6884   C.3       1 RES1   0.0000
    31 O       26.7130  46.9540  -6.0064   O.3       1 RES1   0.0000
    32 O       25.7054  46.5784  -1.7984   O.3       1 RES1   0.0000
    33 C       28.0558  47.1717  -1.6396   C.3       1 RES1   0.0000
    34 O       29.6221  45.0136  -4.7445   O.3       1 RES1   0.0000
    35 C       32.5104  43.6580  -3.8695   C.3       1 RES1   0.0000
    36 C       32.7740  43.2032   0.5807   C.3       1 RES1   0.0000
    37 H1      24.5663  43.8706  -2.3937   H         1 RES1   0.0000
    38 H2      25.4042  42.6768  -1.3561   H         1 RES1   0.0000
    39 H3      24.8969  44.2418  -0.6719   H         1 RES1   0.0000
    40 H4      27.0666  43.6515  -2.7752   H         1 RES1   0.0000
    41 H5      27.2699  44.7336   0.0413   H         1 RES1   0.0000
    42 H6      28.0306  43.2692  -0.6464   H         1 RES1   0.0000
    43 H7      29.3243  45.7397  -0.4648   H         1 RES1   0.0000
    44 H8      29.7353  43.6577  -2.6085   H         1 RES1   0.0000
    45 H9      30.2453  43.3344  -0.0150   H         1 RES1   0.0000
    46 H10     34.8368  44.2128  -0.5082   H         1 RES1   0.0000
    47 H11     35.7969  46.7484  -5.2643   H         1 RES1   0.0000
    48 H12     38.8143  46.1301  -1.6466   H         1 RES1   0.0000
    49 H13     40.3019  45.0207  -0.0001   H         1 RES1   0.0000
    50 H14     39.7192  42.7775   0.8827   H         1 RES1   0.0000
    51 H15     37.6541  41.6398   0.1129   H         1 RES1   0.0000
    52 H16     36.1734  42.7440  -1.5413   H         1 RES1   0.0000
    53 H17     33.0075  46.1128  -4.7887   H         1 RES1   0.0000
    54 H18     33.0192  47.0371  -3.2508   H         1 RES1   0.0000
    55 H19     31.1489  46.3039  -2.0250   H         1 RES1   0.0000
    56 H20     30.8577  46.6679  -4.5840   H         1 RES1   0.0000
    57 H21     29.5517  47.8638  -3.1604   H         1 RES1   0.0000
    58 H22     28.4407  47.1730  -4.3566   H         1 RES1   0.0000
    59 H23     25.2368  47.7033  -4.7719   H         1 RES1   0.0000
    60 H24     26.9177  47.8746  -4.1670   H         1 RES1   0.0000
    61 H25     27.1533  47.7225  -6.3521   H         1 RES1   0.0000
    62 H26     24.7881  46.4121  -1.9807   H         1 RES1   0.0000
    63 H27     27.5620  46.9826  -0.6769   H         1 RES1   0.0000
    64 H28     28.9798  47.6474  -1.2628   H         1 RES1   0.0000
    65 H29     27.4860  47.9742  -2.1429   H         1 RES1   0.0000
    66 H30     29.7761  45.1288  -5.6711   H         1 RES1   0.0000
    67 H31     33.5255  43.2391  -3.8004   H         1 RES1   0.0000
    68 H32     32.3211  43.8745  -4.9285   H         1 RES1   0.0000
    69 H33     31.7994  42.8982  -3.5154   H         1 RES1   0.0000
    70 H34     33.2476  43.9732   1.2078   H         1 RES1   0.0000
    71 H35     32.0184  42.6856   1.1894   H         1 RES1   0.0000
    72 H36     33.5272  42.4602   0.2786   H         1 RES1   0.0000
    73 ****    37.8831  45.8907  -4.0275   Du        1 RES1   0.0000
    74 ****    25.5610  44.0558  -4.0238   Du        1 RES1   0.0000
    75 ****    25.2540  45.0150  -5.4330   Du        1 RES1   0.0000
    76 ****    25.9500  46.7145  -6.6067   Du        1 RES1   0.0000
    77 ****    27.3605  46.1927  -5.9704   Du        1 RES1   0.0000
    78 ****    25.8897  47.5399  -2.0023   Du        1 RES1   0.0000
    79 ****    25.8608  46.4083  -0.8253   Du        1 RES1   0.0000
    80 ****    28.6353  45.0198  -4.5824   Du        1 RES1   0.0000
    81 ****    30.0001  44.1307  -4.4661   Du        1 RES1   0.0000
@<TRIPOS>BOND
     1     1     2    1
     2     2     3    1
     3     3     4    1
     4     4     5    1
     5     5     6    1
     6     6     7    2
     7     7     8    1
     8     8     9    2
     9     9    10    1
    10    10    11   ar
    11    11    12   ar
    12    12    13   ar
    13    13    14   ar
    14    10    14   ar
    15    14    15    1
    16    15    16   ar
    17    16    17   ar
    18    17    18   ar
    19    18    19   ar
    20    19    20   ar
    21    15    20   ar
    22    11    21    1
    23    21    22    1
    24     8    22    1
    25    22    23    1
    26     5    23    1
    27    23    24    1
    28    24    25    1
    29    25    26    1
    30     4    26    1
    31    26    27    1
    32     2    27    1
    33    27    28    1
    34    28    29    2
    35    28    30    1
    36    30    31    1
    37    27    32    1
    38    26    33    1
    39    24    34    1
    40    22    35    1
    41     7    36    1
    42     1    37    1
    43     1    38    1
    44     1    39    1
    45     2    40    1
    46     3    41    1
    47     3    42    1
    48     4    43    1
    49     5    44    1
    50     6    45    1
    51     9    46    1
    52    12    47    1
    53    16    48    1
    54    17    49    1
    55    18    50    1
    56    19    51    1
    57    20    52    1
    58    21    53    1
    59    21    54    1
    60    23    55    1
    61    24    56    1
    62    25    57    1
    63    25    58    1
    64    30    59    1
    65    30    60    1
    66    31    61    1
    67    32    62    1
    68    33    63    1
    69    33    64    1
    70    33    65    1
    71    34    66    1
    72    35    67    1
    73    35    68    1
    74    35    69    1
    75    36    70    1
    76    36    71    1
    77    36    72    1
    78    13    73    1
    79    29    74    1
    80    29    75    1
    81    31    76    1
    82    31    77    1
    83    32    78    1
    84    32    79    1
    85    34    80    1
    86    34    81    1
@<TRIPOS>SUBSTRUCTURE
     1 RES1        1 GROUP             0 ****  ****    0  
@<TRIPOS>MOLECULE
44.2485
    81    86     1     0     0
SMALL
NO_CHARGES
****
Generated from the CSD

@<TRIPOS>ATOM
     1 C       26.9593  49.4304  -4.2588   C.3       1 RES1   0.0000
     2 C       27.7779  48.1946  -3.8159   C.3       1 RES1   0.0000
     3 C       29.2675  48.2546  -4.2519   C.3       1 RES1   0.0000
     4 C       29.8492  46.8246  -4.0552   C.3       1 RES1   0.0000
     5 C       30.6482  46.6263  -2.7419   C.3       1 RES1   0.0000
     6 C       31.9774  47.3015  -2.9365   C.2       1 RES1   0.0000
     7 C       33.1504  46.7664  -2.5833   C.2       1 RES1   0.0000
     8 C       33.2270  45.4496  -1.9147   C.2       1 RES1   0.0000
     9 C       34.4370  44.9158  -1.6856   C.2       1 RES1   0.0000
    10 C       34.5045  43.5920  -0.9739   C.ar      1 RES1   0.0000
    11 C       33.3929  42.7981  -0.7973   C.ar      1 RES1   0.0000
    12 C       33.8401  41.6901  -0.0840   C.ar      1 RES1   0.0000
    13 N       35.1694  41.8242   0.1244   N.ar      1 RES1   0.0000
    14 N       35.5655  42.9798  -0.4190   N.ar      1 RES1   0.0000
    15 C       36.8215  43.5023  -0.4097   C.ar      1 RES1   0.0000
    16 C       37.6033  43.4150   0.7430   C.ar      1 RES1   0.0000
    17 C       38.8945  43.9452   0.7523   C.ar      1 RES1   0.0000
    18 C       39.4037  44.5624  -0.3913   C.ar      1 RES1   0.0000
    19 C       38.6205  44.6525  -1.5432   C.ar      1 RES1   0.0000
    20 C       37.3283  44.1255  -1.5513   C.ar      1 RES1   0.0000
    21 C       32.0398  43.2030  -1.3465   C.3       1 RES1   0.0000
    22 C       31.9436  44.7577  -1.4622   C.3       1 RES1   0.0000
    23 C       30.8101  45.0998  -2.4837   C.3       1 RES1   0.0000
    24 C       29.4207  44.4318  -2.2167   C.3       1 RES1   0.0000
    25 C       28.5610  44.4552  -3.5025   C.3       1 RES1   0.0000
    26 C       28.5247  46.0156  -3.7943   C.3       1 RES1   0.0000
    27 C       27.2481  46.8179  -4.3076   C.3       1 RES1   0.0000
    28 C       26.0270  46.3307  -3.5621   C.2       1 RES1   0.0000
    29 O       25.5589  46.9983  -2.6544   O.2       1 RES1   0.0000
    30 C       25.4047  45.0065  -3.9153   C.3       1 RES1   0.0000
    31 O       24.2755  44.7897  -3.0608   O.3       1 RES1   0.0000
    32 O       26.7384  46.9356  -5.6572   O.3       1 RES1   0.0000
    33 C       28.6798  45.5172  -5.3093   C.3       1 RES1   0.0000
    34 O       28.6566  45.1399  -1.2340   O.3       1 RES1   0.0000
    35 C       31.7352  45.3302  -0.0376   C.3       1 RES1   0.0000
    36 C       34.4091  47.5520  -2.8651   C.3       1 RES1   0.0000
    37 H1      25.9015  49.2850  -3.9948   H         1 RES1   0.0000
    38 H2      27.3406  50.3152  -3.7275   H         1 RES1   0.0000
    39 H3      27.0394  49.6169  -5.3389   H         1 RES1   0.0000
    40 H4      27.8061  48.1962  -2.7171   H         1 RES1   0.0000
    41 H5      29.3126  48.5151  -5.3198   H         1 RES1   0.0000
    42 H6      29.8062  49.0226  -3.6782   H         1 RES1   0.0000
    43 H7      30.5872  46.6071  -4.8468   H         1 RES1   0.0000
    44 H8      30.1084  47.1019  -1.9100   H         1 RES1   0.0000
    45 H9      31.9716  48.2868  -3.3984   H         1 RES1   0.0000
    46 H10     35.3781  45.3782  -1.9730   H         1 RES1   0.0000
    47 H11     33.2274  40.8592   0.2462   H         1 RES1   0.0000
    48 H12     37.2073  42.9348   1.6309   H         1 RES1   0.0000
    49 H13     39.5020  43.8773   1.6479   H         1 RES1   0.0000
    50 H14     40.4076  44.9721  -0.3849   H         1 RES1   0.0000
    51 H15     39.0159  45.1323  -2.4317   H         1 RES1   0.0000
    52 H16     36.7183  44.2002  -2.4447   H         1 RES1   0.0000
    53 H17     31.2682  42.7843  -0.6846   H         1 RES1   0.0000
    54 H18     31.9558  42.7409  -2.3413   H         1 RES1   0.0000
    55 H19     31.1763  44.6756  -3.4311   H         1 RES1   0.0000
    56 H20     29.5068  43.3788  -1.9157   H         1 RES1   0.0000
    57 H21     28.9972  43.6467  -4.1137   H         1 RES1   0.0000
    58 H22     27.5437  44.1389  -3.2261   H         1 RES1   0.0000
    59 H23     25.0658  44.9855  -4.9587   H         1 RES1   0.0000
    60 H24     26.1324  44.1976  -3.7494   H         1 RES1   0.0000
    61 H25     24.5282  44.8618  -2.1471   H         1 RES1   0.0000
    62 H26     25.9053  47.3832  -5.7458   H         1 RES1   0.0000
    63 H27     28.8156  46.3090  -6.0584   H         1 RES1   0.0000
    64 H28     29.5732  44.9100  -5.5443   H         1 RES1   0.0000
    65 H29     27.8110  44.9141  -5.6306   H         1 RES1   0.0000
    66 H30     28.9596  46.0260  -1.0977   H         1 RES1   0.0000
    67 H31     32.6804  45.2460   0.5193   H         1 RES1   0.0000
    68 H32     30.9768  44.7720   0.5258   H         1 RES1   0.0000
    69 H33     31.4549  46.3921  -0.0815   H         1 RES1   0.0000
    70 H34     35.0165  47.0224  -3.6141   H         1 RES1   0.0000
    71 H35     34.1899  48.5573  -3.2533   H         1 RES1   0.0000
    72 H36     34.9894  47.6702  -1.9377   H         1 RES1   0.0000
    73 ****    35.7558  41.1709   0.6032   Du        1 RES1   0.0000
    74 ****    25.9831  47.8684  -2.4034   Du        1 RES1   0.0000
    75 ****    24.7509  46.6754  -2.1615   Du        1 RES1   0.0000
    76 ****    23.9072  43.8753  -3.2287   Du        1 RES1   0.0000
    77 ****    23.5745  45.4737  -3.2628   Du        1 RES1   0.0000
    78 ****    26.6319  46.0125  -6.0269   Du        1 RES1   0.0000
    79 ****    27.4146  47.4354  -6.1984   Du        1 RES1   0.0000
    80 ****    28.7167  44.6457  -0.3668   Du        1 RES1   0.0000
    81 ****    27.7032  45.1718  -1.5341   Du        1 RES1   0.0000
@<TRIPOS>BOND
     1     1     2    1
     2     2     3    1
     3     3     4    1
     4     4     5    1
     5     5     6    1
     6     6     7    2
     7     7     8    1
     8     8     9    2
     9     9    10    1
    10    10    11   ar
    11    11    12   ar
    12    12    13   ar
    13    13    14   ar
    14    10    14   ar
    15    14    15    1
    16    15    16   ar
    17    16    17   ar
    18    17    18   ar
    19    18    19   ar
    20    19    20   ar
    21    15    20   ar
    22    11    21    1
    23    21    22    1
    24     8    22    1
    25    22    23    1
    26     5    23    1
    27    23    24    1
    28    24    25    1
    29    25    26    1
    30     4    26    1
    31    26    27    1
    32     2    27    1
    33    27    28    1
    34    28    29    2
    35    28    30    1
    36    30    31    1
    37    27    32    1
    38    26    33    1
    39    24    34    1
    40    22    35    1
    41     7    36    1
    42     1    37    1
    43     1    38    1
    44     1    39    1
    45     2    40    1
    46     3    41    1
    47     3    42    1
    48     4    43    1
    49     5    44    1
    50     6    45    1
    51     9    46    1
    52    12    47    1
    53    16    48    1
    54    17    49    1
    55    18    50    1
    56    19    51    1
    57    20    52    1
    58    21    53    1
    59    21    54    1
    60    23    55    1
    61    24    56    1
    62    25    57    1
    63    25    58    1
    64    30    59    1
    65    30    60    1
    66    31    61    1
    67    32    62    1
    68    33    63    1
    69    33    64    1
    70    33    65    1
    71    34    66    1
    72    35    67    1
    73    35    68    1
    74    35    69    1
    75    36    70    1
    76    36    71    1
    77    36    72    1
    78    13    73    1
    79    29    74    1
    80    29    75    1
    81    31    76    1
    82    31    77    1
    83    32    78    1
    84    32    79    1
    85    34    80    1
    86    34    81    1
@<TRIPOS>SUBSTRUCTURE
     1 RES1        1 GROUP             0 ****  ****    0  
@<TRIPOS>MOLECULE
43.415
    81    86     1     0     0
SMALL
NO_CHARGES
****
Generated from the CSD

@<TRIPOS>ATOM
     1 C       26.9925  48.5301   2.7564   C.3       1 RES1   0.0000
     2 C       28.4038  48.2071   3.3015   C.3       1 RES1   0.0000
     3 C       29.0910  47.0233   2.5674   C.3       1 RES1   0.0000
     4 C       30.3088  46.6020   3.4401   C.3       1 RES1   0.0000
     5 C       31.6706  47.1730   2.9691   C.3       1 RES1   0.0000
     6 C       32.0766  46.3823   1.7564   C.2       1 RES1   0.0000
     7 C       33.3091  45.9092   1.5465   C.2       1 RES1   0.0000
     8 C       34.4091  46.1738   2.4989   C.2       1 RES1   0.0000
     9 C       35.5947  45.5800   2.2908   C.2       1 RES1   0.0000
    10 C       36.7167  45.8831   3.2462   C.ar      1 RES1   0.0000
    11 C       36.5020  46.5154   4.4509   C.ar      1 RES1   0.0000
    12 C       37.7606  46.6428   5.0305   C.ar      1 RES1   0.0000
    13 N       38.6709  46.0819   4.2027   N.ar      1 RES1   0.0000
    14 N       38.0302  45.6224   3.1229   N.ar      1 RES1   0.0000
    15 C       38.5822  45.0106   2.0405   C.ar      1 RES1   0.0000
    16 C       37.9461  43.9110   1.4627   C.ar      1 RES1   0.0000
    17 C       38.5080  43.2859   0.3484   C.ar      1 RES1   0.0000
    18 C       39.7060  43.7606  -0.1880   C.ar      1 RES1   0.0000
    19 C       40.3438  44.8583   0.3920   C.ar      1 RES1   0.0000
    20 C       39.7837  45.4812   1.5082   C.ar      1 RES1   0.0000
    21 C       35.1083  46.9097   4.8966   C.3       1 RES1   0.0000
    22 C       34.1872  47.1433   3.6570   C.3       1 RES1   0.0000
    23 C       32.7006  47.0219   4.1264   C.3       1 RES1   0.0000
    24 C       32.2928  47.9063   5.3510   C.3       1 RES1   0.0000
    25 C       30.9965  47.3611   5.9954   C.3       1 RES1   0.0000
    26 C       30.0116  47.4200   4.7513   C.3       1 RES1   0.0000
    27 C       28.4851  47.8696   4.8172   C.3       1 RES1   0.0000
    28 C       28.3648  49.0759   5.7197   C.2       1 RES1   0.0000
    29 O       28.5572  48.9628   6.9193   O.2       1 RES1   0.0000
    30 C       27.9762  50.4124   5.1467   C.3       1 RES1   0.0000
    31 O       27.1416  51.0903   6.0933   O.3       1 RES1   0.0000
    32 O       27.3311  47.0914   5.2148   O.3       1 RES1   0.0000
    33 C       29.5089  46.0244   5.3574   C.3       1 RES1   0.0000
    34 O       31.9927  49.2545   4.9724   O.3       1 RES1   0.0000
    35 C       34.5664  48.5093   3.0315   C.3       1 RES1   0.0000
    36 C       33.5640  45.1075   0.2923   C.3       1 RES1   0.0000
    37 H1      26.5311  49.3160   3.3722   H         1 RES1   0.0000
    38 H2      27.0886  48.8974   1.7236   H         1 RES1   0.0000
    39 H3      26.3379  47.6474   2.7478   H         1 RES1   0.0000
    40 H4      29.0431  49.0766   3.0931   H         1 RES1   0.0000
    41 H5      28.3830  46.1832   2.5122   H         1 RES1   0.0000
    42 H6      29.3728  47.3152   1.5453   H         1 RES1   0.0000
    43 H7      30.4497  45.5086   3.3854   H         1 RES1   0.0000
    44 H8      31.5492  48.2321   2.6982   H         1 RES1   0.0000
    45 H9      31.3087  46.1862   1.0108   H         1 RES1   0.0000
    46 H10     35.8055  44.8968   1.4717   H         1 RES1   0.0000
    47 H11     37.9747  47.1099   5.9849   H         1 RES1   0.0000
    48 H12     37.0151  43.5432   1.8795   H         1 RES1   0.0000
    49 H13     38.0138  42.4316  -0.1007   H         1 RES1   0.0000
    50 H14     40.1413  43.2765  -1.0552   H         1 RES1   0.0000
    51 H15     41.2747  45.2271  -0.0245   H         1 RES1   0.0000
    52 H16     40.2821  46.3308   1.9616   H         1 RES1   0.0000
    53 H17     35.1969  47.8063   5.5268   H         1 RES1   0.0000
    54 H18     34.7268  46.0749   5.5029   H         1 RES1   0.0000
    55 H19     32.6180  45.9771   4.4628   H         1 RES1   0.0000
    56 H20     33.0562  47.9155   6.1409   H         1 RES1   0.0000
    57 H21     31.3456  46.4802   6.5608   H         1 RES1   0.0000
    58 H22     30.6555  48.1041   6.7323   H         1 RES1   0.0000
    59 H23     28.8562  51.0355   4.9435   H         1 RES1   0.0000
    60 H24     27.4069  50.2666   4.2161   H         1 RES1   0.0000
    61 H25     26.2416  51.1162   5.7880   H         1 RES1   0.0000
    62 H26     27.1959  46.2811   4.7379   H         1 RES1   0.0000
    63 H27     28.7689  45.4829   4.7528   H         1 RES1   0.0000
    64 H28     30.2643  45.2231   5.4540   H         1 RES1   0.0000
    65 H29     29.0723  46.1516   6.3649   H         1 RES1   0.0000
    66 H30     32.1631  49.8793   5.6625   H         1 RES1   0.0000
    67 H31     35.5366  48.4082   2.5225   H         1 RES1   0.0000
    68 H32     34.6789  49.2946   3.7897   H         1 RES1   0.0000
    69 H33     33.8181  48.8186   2.2882   H         1 RES1   0.0000
    70 H34     33.8036  44.0676   0.5595   H         1 RES1   0.0000
    71 H35     32.6893  45.0950  -0.3742   H         1 RES1   0.0000
    72 H36     34.4042  45.5469  -0.2659   H         1 RES1   0.0000
    73 ****    39.6550  46.0212   4.3697   Du        1 RES1   0.0000
    74 ****    28.7946  48.0716   7.3057   Du        1 RES1   0.0000
    75 ****    28.4775  49.7613   7.5159   Du        1 RES1   0.0000
    76 ****    27.4745  52.0255   6.2144   Du        1 RES1   0.0000
    77 ****    27.1780  50.6076   6.9683   Du        1 RES1   0.0000
    78 ****    26.5187  47.6608   5.0894   Du        1 RES1   0.0000
    79 ****    27.4327  46.8644   6.1834   Du        1 RES1   0.0000
    80 ****    31.0251  49.3083   4.7257   Du        1 RES1   0.0000
    81 ****    32.5527  49.4949   4.1796   Du        1 RES1   0.0000
@<TRIPOS>BOND
     1     1     2    1
     2     2     3    1
     3     3     4    1
     4     4     5    1
     5     5     6    1
     6     6     7    2
     7     7     8    1
     8     8     9    2
     9     9    10    1
    10    10    11   ar
    11    11    12   ar
    12    12    13   ar
    13    13    14   ar
    14    10    14   ar
    15    14    15    1
    16    15    16   ar
    17    16    17   ar
    18    17    18   ar
    19    18    19   ar
    20    19    20   ar
    21    15    20   ar
    22    11    21    1
    23    21    22    1
    24     8    22    1
    25    22    23    1
    26     5    23    1
    27    23    24    1
    28    24    25    1
    29    25    26    1
    30     4    26    1
    31    26    27    1
    32     2    27    1
    33    27    28    1
    34    28    29    2
    35    28    30    1
    36    30    31    1
    37    27    32    1
    38    26    33    1
    39    24    34    1
    40    22    35    1
    41     7    36    1
    42     1    37    1
    43     1    38    1
    44     1    39    1
    45     2    40    1
    46     3    41    1
    47     3    42    1
    48     4    43    1
    49     5    44    1
    50     6    45    1
    51     9    46    1
    52    12    47    1
    53    16    48    1
    54    17    49    1
    55    18    50    1
    56    19    51    1
    57    20    52    1
    58    21    53    1
    59    21    54    1
    60    23    55    1
    61    24    56    1
    62    25    57    1
    63    25    58    1
    64    30    59    1
    65    30    60    1
    66    31    61    1
    67    32    62    1
    68    33    63    1
    69    33    64    1
    70    33    65    1
    71    34    66    1
    72    35    67    1
    73    35    68    1
    74    35    69    1
    75    36    70    1
    76    36    71    1
    77    36    72    1
    78    13    73    1
    79    29    74    1
    80    29    75    1
    81    31    76    1
    82    31    77    1
    83    32    78    1
    84    32    79    1
    85    34    80    1
    86    34    81    1
@<TRIPOS>SUBSTRUCTURE
     1 RES1        1 GROUP             0 ****  ****    0  
@<TRIPOS>MOLECULE
43.1006
    81    86     1     0     0
SMALL
NO_CHARGES
****
Generated from the CSD

@<TRIPOS>ATOM
     1 C       39.2142  49.7044  11.1923   C.3       1 RES1   0.0000
     2 C       38.6025  49.5861   9.7762   C.3       1 RES1   0.0000
     3 C       39.4098  48.6525   8.8332   C.3       1 RES1   0.0000
     4 C       38.8892  48.9156   7.3903   C.3       1 RES1   0.0000
     5 C       37.8506  47.8848   6.8794   C.3       1 RES1   0.0000
     6 C       38.6123  46.6347   6.5365   C.2       1 RES1   0.0000
     7 C       38.4189  45.9187   5.4244   C.2       1 RES1   0.0000
     8 C       37.3796  46.2893   4.4397   C.2       1 RES1   0.0000
     9 C       37.3081  45.5982   3.2914   C.2       1 RES1   0.0000
    10 C       36.2253  45.9610   2.3120   C.ar      1 RES1   0.0000
    11 C       35.4960  47.1241   2.4243   C.ar      1 RES1   0.0000
    12 C       34.5873  47.0933   1.3709   C.ar      1 RES1   0.0000
    13 N       34.7983  45.9641   0.6575   N.ar      1 RES1   0.0000
    14 N       35.7940  45.2828   1.2338   N.ar      1 RES1   0.0000
    15 C       36.2999  44.0821   0.8425   C.ar      1 RES1   0.0000
    16 C       37.6814  43.8906   0.7958   C.ar      1 RES1   0.0000
    17 C       38.2020  42.6574   0.4004   C.ar      1 RES1   0.0000
    18 C       37.3408  41.6157   0.0519   C.ar      1 RES1   0.0000
    19 C       35.9590  41.8084   0.0955   C.ar      1 RES1   0.0000
    20 C       35.4387  43.0425   0.4875   C.ar      1 RES1   0.0000
    21 C       35.7728  48.1243   3.5285   C.3       1 RES1   0.0000
    22 C       36.3923  47.4060   4.7695   C.3       1 RES1   0.0000
    23 C       37.1300  48.4797   5.6344   C.3       1 RES1   0.0000
    24 C       36.2897  49.7392   6.0289   C.3       1 RES1   0.0000
    25 C       37.2268  50.8968   6.4470   C.3       1 RES1   0.0000
    26 C       38.0225  50.2063   7.6349   C.3       1 RES1   0.0000
    27 C       38.4254  50.9216   8.9998   C.3       1 RES1   0.0000
    28 C       37.2623  51.7586   9.4798   C.2       1 RES1   0.0000
    29 O       36.9040  52.7320   8.8372   O.2       1 RES1   0.0000
    30 C       36.5637  51.4133  10.7676   C.3       1 RES1   0.0000
    31 O       35.1831  51.1567  10.4841   O.3       1 RES1   0.0000
    32 O       39.5454  51.8003   9.2621   O.3       1 RES1   0.0000
    33 C       39.2528  51.0022   6.9863   C.3       1 RES1   0.0000
    34 O       35.4501  49.4992   7.1640   O.3       1 RES1   0.0000
    35 C       35.2550  46.6471   5.4986   C.3       1 RES1   0.0000
    36 C       39.2787  44.6973   5.2010   C.3       1 RES1   0.0000
    37 H1      38.6462  50.4420  11.7781   H         1 RES1   0.0000
    38 H2      39.1451  48.7252  11.6895   H         1 RES1   0.0000
    39 H3      40.2717  50.0022  11.1650   H         1 RES1   0.0000
    40 H4      37.6223  49.1001   9.8817   H         1 RES1   0.0000
    41 H5      40.4727  48.9309   8.8861   H         1 RES1   0.0000
    42 H6      39.3035  47.6037   9.1460   H         1 RES1   0.0000
    43 H7      39.7208  48.8296   6.6695   H         1 RES1   0.0000
    44 H8      37.1249  47.6703   7.6776   H         1 RES1   0.0000
    45 H9      39.3690  46.3035   7.2450   H         1 RES1   0.0000
    46 H10     37.9766  44.7848   3.0200   H         1 RES1   0.0000
    47 H11     33.8391  47.8477   1.1568   H         1 RES1   0.0000
    48 H12     38.3498  44.7000   1.0674   H         1 RES1   0.0000
    49 H13     39.2754  42.5085   0.3643   H         1 RES1   0.0000
    50 H14     37.7451  40.6569  -0.2529   H         1 RES1   0.0000
    51 H15     35.2898  40.9993  -0.1755   H         1 RES1   0.0000
    52 H16     34.3652  43.1934   0.5164   H         1 RES1   0.0000
    53 H17     34.8275  48.6322   3.7680   H         1 RES1   0.0000
    54 H18     36.4844  48.8550   3.1166   H         1 RES1   0.0000
    55 H19     37.9314  48.8419   4.9724   H         1 RES1   0.0000
    56 H20     35.6754  50.1164   5.1999   H         1 RES1   0.0000
    57 H21     37.6106  51.2728   5.4832   H         1 RES1   0.0000
    58 H22     36.5989  51.6917   6.8774   H         1 RES1   0.0000
    59 H23     36.9986  50.5214  11.2359   H         1 RES1   0.0000
    60 H24     36.6282  52.2625  11.4649   H         1 RES1   0.0000
    61 H25     34.6607  51.9377  10.6293   H         1 RES1   0.0000
    62 H26     39.3386  52.6064   9.7201   H         1 RES1   0.0000
    63 H27     40.2379  50.7935   7.4250   H         1 RES1   0.0000
    64 H28     39.4893  50.7775   5.9301   H         1 RES1   0.0000
    65 H29     39.1019  52.0961   7.0365   H         1 RES1   0.0000
    66 H30     35.8142  49.8337   7.9709   H         1 RES1   0.0000
    67 H31     34.9750  45.7682   4.8989   H         1 RES1   0.0000
    68 H32     34.3534  47.2623   5.6118   H         1 RES1   0.0000
    69 H33     35.5899  46.2981   6.4857   H         1 RES1   0.0000
    70 H34     39.9289  44.8566   4.3279   H         1 RES1   0.0000
    71 H35     39.9197  44.4798   6.0678   H         1 RES1   0.0000
    72 H36     38.6394  43.8187   5.0282   H         1 RES1   0.0000
    73 ****    34.2956  45.6862  -0.1611   Du        1 RES1   0.0000
    74 ****    37.3800  52.9763   7.9924   Du        1 RES1   0.0000
    75 ****    36.1343  53.2855   9.1554   Du        1 RES1   0.0000
    76 ****    34.8551  50.4260  11.0828   Du        1 RES1   0.0000
    77 ****    35.0910  50.8724   9.5298   Du        1 RES1   0.0000
    78 ****    39.9575  52.0431   8.3839   Du        1 RES1   0.0000
    79 ****    40.2093  51.2954   9.8136   Du        1 RES1   0.0000
    80 ****    35.3174  48.5127   7.2592   Du        1 RES1   0.0000
    81 ****    34.5668  49.9407   7.0059   Du        1 RES1   0.0000
@<TRIPOS>BOND
     1     1     2    1
     2     2     3    1
     3     3     4    1
     4     4     5    1
     5     5     6    1
     6     6     7    2
     7     7     8    1
     8     8     9    2
     9     9    10    1
    10    10    11   ar
    11    11    12   ar
    12    12    13   ar
    13    13    14   ar
    14    10    14   ar
    15    14    15    1
    16    15    16   ar
    17    16    17   ar
    18    17    18   ar
    19    18    19   ar
    20    19    20   ar
    21    15    20   ar
    22    11    21    1
    23    21    22    1
    24     8    22    1
    25    22    23    1
    26     5    23    1
    27    23    24    1
    28    24    25    1
    29    25    26    1
    30     4    26    1
    31    26    27    1
    32     2    27    1
    33    27    28    1
    34    28    29    2
    35    28    30    1
    36    30    31    1
    37    27    32    1
    38    26    33    1
    39    24    34    1
    40    22    35    1
    41     7    36    1
    42     1    37    1
    43     1    38    1
    44     1    39    1
    45     2    40    1
    46     3    41    1
    47     3    42    1
    48     4    43    1
    49     5    44    1
    50     6    45    1
    51     9    46    1
    52    12    47    1
    53    16    48    1
    54    17    49    1
    55    18    50    1
    56    19    51    1
    57    20    52    1
    58    21    53    1
    59    21    54    1
    60    23    55    1
    61    24    56    1
    62    25    57    1
    63    25    58    1
    64    30    59    1
    65    30    60    1
    66    31    61    1
    67    32    62    1
    68    33    63    1
    69    33    64    1
    70    33    65    1
    71    34    66    1
    72    35    67    1
    73    35    68    1
    74    35    69    1
    75    36    70    1
    76    36    71    1
    77    36    72    1
    78    13    73    1
    79    29    74    1
    80    29    75    1
    81    31    76    1
    82    31    77    1
    83    32    78    1
    84    32    79    1
    85    34    80    1
    86    34    81    1
@<TRIPOS>SUBSTRUCTURE
     1 RES1        1 GROUP             0 ****  ****    0  
@<TRIPOS>MOLECULE
43.0516
    81    86     1     0     0
SMALL
NO_CHARGES
****
Generated from the CSD

@<TRIPOS>ATOM
     1 C       39.2799  49.6854  11.1649   C.3       1 RES1   0.0000
     2 C       38.6564  49.5703   9.7538   C.3       1 RES1   0.0000
     3 C       39.4590  48.6437   8.8000   C.3       1 RES1   0.0000
     4 C       38.9249  48.9105   7.3628   C.3       1 RES1   0.0000
     5 C       37.8858  47.8776   6.8568   C.3       1 RES1   0.0000
     6 C       38.6495  46.6319   6.5023   C.2       1 RES1   0.0000
     7 C       38.4492  45.9196   5.3890   C.2       1 RES1   0.0000
     8 C       37.3999  46.2900   4.4150   C.2       1 RES1   0.0000
     9 C       37.3210  45.6031   3.2646   C.2       1 RES1   0.0000
    10 C       36.2283  45.9656   2.2961   C.ar      1 RES1   0.0000
    11 C       35.4954  47.1253   2.4195   C.ar      1 RES1   0.0000
    12 C       34.5777  47.0950   1.3739   C.ar      1 RES1   0.0000
    13 N       34.7869  45.9696   0.6541   N.ar      1 RES1   0.0000
    14 N       35.7903  45.2900   1.2190   N.ar      1 RES1   0.0000
    15 C       36.2974  44.0928   0.8185   C.ar      1 RES1   0.0000
    16 C       35.4364  43.0752   0.4054   C.ar      1 RES1   0.0000
    17 C       35.9554  41.8484  -0.0116   C.ar      1 RES1   0.0000
    18 C       37.3355  41.6396  -0.0155   C.ar      1 RES1   0.0000
    19 C       38.1964  42.6563   0.4008   C.ar      1 RES1   0.0000
    20 C       37.6772  43.8817   0.8209   C.ar      1 RES1   0.0000
    21 C       35.7779  48.1222   3.5252   C.3       1 RES1   0.0000
    22 C       36.4111  47.4014   4.7578   C.3       1 RES1   0.0000
    23 C       37.1521  48.4746   5.6206   C.3       1 RES1   0.0000
    24 C       36.3103  49.7292   6.0275   C.3       1 RES1   0.0000
    25 C       37.2464  50.8888   6.4420   C.3       1 RES1   0.0000
    26 C       38.0552  50.1967   7.6201   C.3       1 RES1   0.0000
    27 C       38.4672  50.9082   8.9843   C.3       1 RES1   0.0000
    28 C       37.3050  51.7387   9.4778   C.2       1 RES1   0.0000
    29 O       37.0327  52.7945   8.9302   O.2       1 RES1   0.0000
    30 C       36.5009  51.2822  10.6655   C.3       1 RES1   0.0000
    31 O       35.3634  52.1419  10.8050   O.3       1 RES1   0.0000
    32 O       39.5859  51.7903   9.2404   O.3       1 RES1   0.0000
    33 C       39.2766  51.0001   6.9641   C.3       1 RES1   0.0000
    34 O       35.4816  49.4813   7.1688   O.3       1 RES1   0.0000
    35 C       35.2832  46.6351   5.4938   C.3       1 RES1   0.0000
    36 C       39.3118  44.7026   5.1532   C.3       1 RES1   0.0000
    37 H1      38.7142  50.4184  11.7586   H         1 RES1   0.0000
    38 H2      39.2191  48.7040  11.6588   H         1 RES1   0.0000
    39 H3      40.3360  49.9875  11.1296   H         1 RES1   0.0000
    40 H4      37.6790  49.0800   9.8658   H         1 RES1   0.0000
    41 H5      40.5213  48.9261   8.8447   H         1 RES1   0.0000
    42 H6      39.3596  47.5932   9.1095   H         1 RES1   0.0000
    43 H7      39.7504  48.8306   6.6344   H         1 RES1   0.0000
    44 H8      37.1680  47.6570   7.6605   H         1 RES1   0.0000
    45 H9      39.4136  46.3009   7.2028   H         1 RES1   0.0000
    46 H10     37.9903  44.7935   2.9841   H         1 RES1   0.0000
    47 H11     33.8246  47.8474   1.1694   H         1 RES1   0.0000
    48 H12     34.3645  43.2384   0.4080   H         1 RES1   0.0000
    49 H13     35.2865  41.0577  -0.3328   H         1 RES1   0.0000
    50 H14     37.7388  40.6874  -0.3418   H         1 RES1   0.0000
    51 H15     39.2686  42.4942   0.3980   H         1 RES1   0.0000
    52 H16     38.3461  44.6696   1.1491   H         1 RES1   0.0000
    53 H17     34.8328  48.6254   3.7750   H         1 RES1   0.0000
    54 H18     36.4830  48.8573   3.1100   H         1 RES1   0.0000
    55 H19     37.9463  48.8426   4.9531   H         1 RES1   0.0000
    56 H20     35.6873  50.1072   5.2054   H         1 RES1   0.0000
    57 H21     37.6203  51.2702   5.4764   H         1 RES1   0.0000
    58 H22     36.6192  51.6795   6.8811   H         1 RES1   0.0000
    59 H23     36.1492  50.2503  10.5420   H         1 RES1   0.0000
    60 H24     37.1115  51.3552  11.5783   H         1 RES1   0.0000
    61 H25     34.8424  51.8882  11.5587   H         1 RES1   0.0000
    62 H26     40.1493  51.9685   8.4966   H         1 RES1   0.0000
    63 H27     40.2664  50.7936   7.3933   H         1 RES1   0.0000
    64 H28     39.5048  50.7806   5.9049   H         1 RES1   0.0000
    65 H29     39.1219  52.0932   7.0199   H         1 RES1   0.0000
    66 H30     35.4729  50.2012   7.7831   H         1 RES1   0.0000
    67 H31     35.0015  45.7575   4.8930   H         1 RES1   0.0000
    68 H32     34.3802  47.2462   5.6173   H         1 RES1   0.0000
    69 H33     35.6280  46.2835   6.4765   H         1 RES1   0.0000
    70 H34     39.9537  44.8679   4.2751   H         1 RES1   0.0000
    71 H35     39.9612  44.4841   6.0135   H         1 RES1   0.0000
    72 H36     38.6745  43.8221   4.9825   H         1 RES1   0.0000
    73 ****    34.2782  45.6929  -0.1611   Du        1 RES1   0.0000
    74 ****    37.5786  53.1107   8.1543   Du        1 RES1   0.0000
    75 ****    36.2636  53.3435   9.2572   Du        1 RES1   0.0000
    76 ****    34.8009  52.0789   9.9806   Du        1 RES1   0.0000
    77 ****    35.6763  53.0842  10.9239   Du        1 RES1   0.0000
    78 ****    40.1461  51.3757   9.9575   Du        1 RES1   0.0000
    79 ****    39.2209  52.6629   9.5651   Du        1 RES1   0.0000
    80 ****    35.8211  48.6662   7.6381   Du        1 RES1   0.0000
    81 ****    34.5462  49.3195   6.8543   Du        1 RES1   0.0000
@<TRIPOS>BOND
     1     1     2    1
     2     2     3    1
     3     3     4    1
     4     4     5    1
     5     5     6    1
     6     6     7    2
     7     7     8    1
     8     8     9    2
     9     9    10    1
    10    10    11   ar
    11    11    12   ar
    12    12    13   ar
    13    13    14   ar
    14    10    14   ar
    15    14    15    1
    16    15    16   ar
    17    16    17   ar
    18    17    18   ar
    19    18    19   ar
    20    19    20   ar
    21    15    20   ar
    22    11    21    1
    23    21    22    1
    24     8    22    1
    25    22    23    1
    26     5    23    1
    27    23    24    1
    28    24    25    1
    29    25    26    1
    30     4    26    1
    31    26    27    1
    32     2    27    1
    33    27    28    1
    34    28    29    2
    35    28    30    1
    36    30    31    1
    37    27    32    1
    38    26    33    1
    39    24    34    1
    40    22    35    1
    41     7    36    1
    42     1    37    1
    43     1    38    1
    44     1    39    1
    45     2    40    1
    46     3    41    1
    47     3    42    1
    48     4    43    1
    49     5    44    1
    50     6    45    1
    51     9    46    1
    52    12    47    1
    53    16    48    1
    54    17    49    1
    55    18    50    1
    56    19    51    1
    57    20    52    1
    58    21    53    1
    59    21    54    1
    60    23    55    1
    61    24    56    1
    62    25    57    1
    63    25    58    1
    64    30    59    1
    65    30    60    1
    66    31    61    1
    67    32    62    1
    68    33    63    1
    69    33    64    1
    70    33    65    1
    71    34    66    1
    72    35    67    1
    73    35    68    1
    74    35    69    1
    75    36    70    1
    76    36    71    1
    77    36    72    1
    78    13    73    1
    79    29    74    1
    80    29    75    1
    81    31    76    1
    82    31    77    1
    83    32    78    1
    84    32    79    1
    85    34    80    1
    86    34    81    1
@<TRIPOS>SUBSTRUCTURE
     1 RES1        1 GROUP             0 ****  ****    0  
@<TRIPOS>MOLECULE
43.0142
    81    86     1     0     0
SMALL
NO_CHARGES
****
Generated from the CSD

@<TRIPOS>ATOM
     1 C       39.3972  49.6437  11.1976   C.3       1 RES1   0.0000
     2 C       38.7616  49.5397   9.7910   C.3       1 RES1   0.0000
     3 C       39.5520  48.6149   8.8254   C.3       1 RES1   0.0000
     4 C       39.0074  48.8926   7.3941   C.3       1 RES1   0.0000
     5 C       37.9594  47.8675   6.8907   C.3       1 RES1   0.0000
     6 C       38.7141  46.6203   6.5228   C.2       1 RES1   0.0000
     7 C       38.5014  45.9155   5.4071   C.2       1 RES1   0.0000
     8 C       37.4459  46.2965   4.4438   C.2       1 RES1   0.0000
     9 C       37.3544  45.6167   3.2901   C.2       1 RES1   0.0000
    10 C       36.2556  45.9900   2.3327   C.ar      1 RES1   0.0000
    11 C       35.5292  47.1524   2.4688   C.ar      1 RES1   0.0000
    12 C       34.6029  47.1326   1.4306   C.ar      1 RES1   0.0000
    13 N       34.8009  46.0104   0.7027   N.ar      1 RES1   0.0000
    14 N       35.8055  45.3227   1.2554   N.ar      1 RES1   0.0000
    15 C       36.3037  44.1255   0.8438   C.ar      1 RES1   0.0000
    16 C       35.4342  43.1126   0.4368   C.ar      1 RES1   0.0000
    17 C       35.9439  41.8858   0.0085   C.ar      1 RES1   0.0000
    18 C       37.3231  41.6722  -0.0128   C.ar      1 RES1   0.0000
    19 C       38.1925  42.6842   0.3975   C.ar      1 RES1   0.0000
    20 C       37.6826  43.9096   0.8290   C.ar      1 RES1   0.0000
    21 C       35.8255  48.1415   3.5780   C.3       1 RES1   0.0000
    22 C       36.4653  47.4106   4.8012   C.3       1 RES1   0.0000
    23 C       37.2184  48.4752   5.6640   C.3       1 RES1   0.0000
    24 C       36.3860  49.7314   6.0850   C.3       1 RES1   0.0000
    25 C       37.3310  50.8841   6.4985   C.3       1 RES1   0.0000
    26 C       38.1461  50.1814   7.6660   C.3       1 RES1   0.0000
    27 C       38.5726  50.8829   9.0308   C.3       1 RES1   0.0000
    28 C       37.4184  51.7161   9.5386   C.2       1 RES1   0.0000
    29 O       37.1267  52.7606   8.9795   O.2       1 RES1   0.0000
    30 C       36.6467  51.2766  10.7539   C.3       1 RES1   0.0000
    31 O       35.3314  50.8848  10.3431   O.3       1 RES1   0.0000
    32 O       39.6976  51.7583   9.2828   O.3       1 RES1   0.0000
    33 C       39.3659  50.9828   7.0046   C.3       1 RES1   0.0000
    34 O       35.5655  49.4808   7.2316   O.3       1 RES1   0.0000
    35 C       35.3398  46.6454   5.5419   C.3       1 RES1   0.0000
    36 C       39.3562  44.6958   5.1572   C.3       1 RES1   0.0000
    37 H1      38.8398  50.3759  11.8001   H         1 RES1   0.0000
    38 H2      39.3357  48.6598  11.6863   H         1 RES1   0.0000
    39 H3      40.4544  49.9410  11.1554   H         1 RES1   0.0000
    40 H4      37.7829  49.0534   9.9082   H         1 RES1   0.0000
    41 H5      40.6160  48.8920   8.8630   H         1 RES1   0.0000
    42 H6      39.4501  47.5631   9.1296   H         1 RES1   0.0000
    43 H7      39.8266  48.8130   6.6586   H         1 RES1   0.0000
    44 H8      37.2471  47.6457   7.6989   H         1 RES1   0.0000
    45 H9      39.4824  46.2817   7.2151   H         1 RES1   0.0000
    46 H10     38.0175  44.8056   2.9995   H         1 RES1   0.0000
    47 H11     33.8518  47.8896   1.2367   H         1 RES1   0.0000
    48 H12     34.3630  43.2795   0.4529   H         1 RES1   0.0000
    49 H13     35.2685  41.0988  -0.3080   H         1 RES1   0.0000
    50 H14     37.7192  40.7201  -0.3478   H         1 RES1   0.0000
    51 H15     39.2640  42.5184   0.3813   H         1 RES1   0.0000
    52 H16     38.3581  44.6938   1.1524   H         1 RES1   0.0000
    53 H17     34.8849  48.6477   3.8384   H         1 RES1   0.0000
    54 H18     36.5308  48.8757   3.1612   H         1 RES1   0.0000
    55 H19     38.0089  48.8433   4.9922   H         1 RES1   0.0000
    56 H20     35.7582  50.1171   5.2702   H         1 RES1   0.0000
    57 H21     37.6988  51.2693   5.5321   H         1 RES1   0.0000
    58 H22     36.7112  51.6752   6.9473   H         1 RES1   0.0000
    59 H23     37.1282  50.4254  11.2515   H         1 RES1   0.0000
    60 H24     36.5596  52.1145  11.4621   H         1 RES1   0.0000
    61 H25     34.8025  51.6485  10.1406   H         1 RES1   0.0000
    62 H26     40.3475  51.8040   8.5915   H         1 RES1   0.0000
    63 H27     40.3581  50.7691   7.4245   H         1 RES1   0.0000
    64 H28     39.5844  50.7683   5.9423   H         1 RES1   0.0000
    65 H29     39.2169  52.0763   7.0680   H         1 RES1   0.0000
    66 H30     36.0586  49.4436   8.0385   H         1 RES1   0.0000
    67 H31     35.0490  45.7726   4.9384   H         1 RES1   0.0000
    68 H32     34.4407  47.2600   5.6763   H         1 RES1   0.0000
    69 H33     35.6909  46.2864   6.5197   H         1 RES1   0.0000
    70 H34     39.9917  44.8631   4.2749   H         1 RES1   0.0000
    71 H35     40.0115  44.4693   6.0109   H         1 RES1   0.0000
    72 H36     38.7133  43.8193   4.9867   H         1 RES1   0.0000
    73 ****    34.2842  45.7408  -0.1100   Du        1 RES1   0.0000
    74 ****    37.6513  53.0658   8.1848   Du        1 RES1   0.0000
    75 ****    36.3629  53.3114   9.3160   Du        1 RES1   0.0000
    76 ****    34.8962  50.3700  11.0817   Du        1 RES1   0.0000
    77 ****    35.3996  50.3073   9.5295   Du        1 RES1   0.0000
    78 ****    40.1545  51.4398  10.1133   Du        1 RES1   0.0000
    79 ****    39.3416  52.6809   9.4312   Du        1 RES1   0.0000
    80 ****    35.0975  48.6064   7.1036   Du        1 RES1   0.0000
    81 ****    34.8888  50.2134   7.3053   Du        1 RES1   0.0000
@<TRIPOS>BOND
     1     1     2    1
     2     2     3    1
     3     3     4    1
     4     4     5    1
     5     5     6    1
     6     6     7    2
     7     7     8    1
     8     8     9    2
     9     9    10    1
    10    10    11   ar
    11    11    12   ar
    12    12    13   ar
    13    13    14   ar
    14    10    14   ar
    15    14    15    1
    16    15    16   ar
    17    16    17   ar
    18    17    18   ar
    19    18    19   ar
    20    19    20   ar
    21    15    20   ar
    22    11    21    1
    23    21    22    1
    24     8    22    1
    25    22    23    1
    26     5    23    1
    27    23    24    1
    28    24    25    1
    29    25    26    1
    30     4    26    1
    31    26    27    1
    32     2    27    1
    33    27    28    1
    34    28    29    2
    35    28    30    1
    36    30    31    1
    37    27    32    1
    38    26    33    1
    39    24    34    1
    40    22    35    1
    41     7    36    1
    42     1    37    1
    43     1    38    1
    44     1    39    1
    45     2    40    1
    46     3    41    1
    47     3    42    1
    48     4    43    1
    49     5    44    1
    50     6    45    1
    51     9    46    1
    52    12    47    1
    53    16    48    1
    54    17    49    1
    55    18    50    1
    56    19    51    1
    57    20    52    1
    58    21    53    1
    59    21    54    1
    60    23    55    1
    61    24    56    1
    62    25    57    1
    63    25    58    1
    64    30    59    1
    65    30    60    1
    66    31    61    1
    67    32    62    1
    68    33    63    1
    69    33    64    1
    70    33    65    1
    71    34    66    1
    72    35    67    1
    73    35    68    1
    74    35    69    1
    75    36    70    1
    76    36    71    1
    77    36    72    1
    78    13    73    1
    79    29    74    1
    80    29    75    1
    81    31    76    1
    82    31    77    1
    83    32    78    1
    84    32    79    1
    85    34    80    1
    86    34    81    1
@<TRIPOS>SUBSTRUCTURE
     1 RES1        1 GROUP             0 ****  ****    0  
@<TRIPOS>MOLECULE
42.6877
    81    86     1     0     0
SMALL
NO_CHARGES
****
Generated from the CSD

@<TRIPOS>ATOM
     1 C       34.1779  41.5651   0.7073   C.3       1 RES1   0.0000
     2 C       35.2906  42.6394   0.6737   C.3       1 RES1   0.0000
     3 C       34.9475  43.9069   1.5032   C.3       1 RES1   0.0000
     4 C       35.9702  45.0040   1.0876   C.3       1 RES1   0.0000
     5 C       37.1681  45.1719   2.0568   C.3       1 RES1   0.0000
     6 C       36.6500  45.9022   3.2646   C.2       1 RES1   0.0000
     7 C       37.2856  46.9174   3.8583   C.2       1 RES1   0.0000
     8 C       38.6064  47.3833   3.3836   C.2       1 RES1   0.0000
     9 C       39.1424  48.4763   3.9489   C.2       1 RES1   0.0000
    10 C       40.5017  48.9214   3.4825   C.ar      1 RES1   0.0000
    11 C       41.0821  48.4235   2.3368   C.ar      1 RES1   0.0000
    12 C       42.3258  49.0420   2.2542   C.ar      1 RES1   0.0000
    13 N       42.4529  49.8877   3.3016   N.ar      1 RES1   0.0000
    14 N       41.3421  49.8098   4.0417   N.ar      1 RES1   0.0000
    15 C       41.0766  50.4809   5.1949   C.ar      1 RES1   0.0000
    16 C       39.8065  51.0170   5.4117   C.ar      1 RES1   0.0000
    17 C       39.5305  51.7005   6.5970   C.ar      1 RES1   0.0000
    18 C       40.5249  51.8477   7.5654   C.ar      1 RES1   0.0000
    19 C       41.7962  51.3143   7.3471   C.ar      1 RES1   0.0000
    20 C       42.0729  50.6339   6.1604   C.ar      1 RES1   0.0000
    21 C       40.3606  47.4201   1.4598   C.3       1 RES1   0.0000
    22 C       39.3433  46.5909   2.3067   C.3       1 RES1   0.0000
    23 C       38.2853  45.9779   1.3320   C.3       1 RES1   0.0000
    24 C       38.8557  45.1690   0.1202   C.3       1 RES1   0.0000
    25 C       37.7818  45.0347  -0.9850   C.3       1 RES1   0.0000
    26 C       36.6211  44.3194  -0.1712   C.3       1 RES1   0.0000
    27 C       35.6953  43.1533  -0.7369   C.3       1 RES1   0.0000
    28 C       36.5486  42.1824  -1.5201   C.2       1 RES1   0.0000
    29 O       36.9944  42.5026  -2.6098   O.2       1 RES1   0.0000
    30 C       36.8239  40.8074  -0.9733   C.3       1 RES1   0.0000
    31 O       36.1015  39.8506  -1.7575   O.3       1 RES1   0.0000
    32 O       34.5243  43.2596  -1.5811   O.3       1 RES1   0.0000
    33 C       35.7014  45.3119  -1.0295   C.3       1 RES1   0.0000
    34 O       39.2048  43.8270   0.4780   O.3       1 RES1   0.0000
    35 C       40.1448  45.5568   3.1369   C.3       1 RES1   0.0000
    36 C       36.6299  47.5731   5.0503   C.3       1 RES1   0.0000
    37 H1      34.4458  40.7367   0.0352   H         1 RES1   0.0000
    38 H2      34.0923  41.1776   1.7336   H         1 RES1   0.0000
    39 H3      33.2003  41.9695   0.4099   H         1 RES1   0.0000
    40 H4      36.1750  42.2115   1.1667   H         1 RES1   0.0000
    41 H5      33.9348  44.2418   1.2337   H         1 RES1   0.0000
    42 H6      34.9699  43.6811   2.5791   H         1 RES1   0.0000
    43 H7      35.4834  45.9946   1.0980   H         1 RES1   0.0000
    44 H8      37.5403  44.1804   2.3537   H         1 RES1   0.0000
    45 H9      35.6942  45.5766   3.6703   H         1 RES1   0.0000
    46 H10     38.6644  49.0625   4.7299   H         1 RES1   0.0000
    47 H11     43.0662  48.8760   1.4801   H         1 RES1   0.0000
    48 H12     39.0343  50.9016   4.6593   H         1 RES1   0.0000
    49 H13     38.5437  52.1170   6.7656   H         1 RES1   0.0000
    50 H14     40.3099  52.3766   8.4873   H         1 RES1   0.0000
    51 H15     42.5689  51.4288   8.0992   H         1 RES1   0.0000
    52 H16     43.0621  50.2241   5.9890   H         1 RES1   0.0000
    53 H17     41.1191  46.7861   0.9787   H         1 RES1   0.0000
    54 H18     39.8312  48.0017   0.6906   H         1 RES1   0.0000
    55 H19     37.7847  46.8593   0.9028   H         1 RES1   0.0000
    56 H20     39.7245  45.6556  -0.3438   H         1 RES1   0.0000
    57 H21     37.7817  46.0303  -1.4606   H         1 RES1   0.0000
    58 H22     38.1620  44.3201  -1.7308   H         1 RES1   0.0000
    59 H23     37.8926  40.5627  -1.0162   H         1 RES1   0.0000
    60 H24     36.4745  40.7447   0.0685   H         1 RES1   0.0000
    61 H25     35.1670  39.9249  -1.5990   H         1 RES1   0.0000
    62 H26     34.0211  42.4614  -1.6906   H         1 RES1   0.0000
    63 H27     34.6332  45.3102  -0.7739   H         1 RES1   0.0000
    64 H28     35.8981  46.3940  -0.9178   H         1 RES1   0.0000
    65 H29     35.7750  45.1012  -2.1121   H         1 RES1   0.0000
    66 H30     39.8638  43.7842   1.1558   H         1 RES1   0.0000
    67 H31     40.6705  46.0844   3.9468   H         1 RES1   0.0000
    68 H32     40.9070  45.0450   2.5358   H         1 RES1   0.0000
    69 H33     39.4719  44.8146   3.5892   H         1 RES1   0.0000
    70 H34     36.3585  48.6096   4.8003   H         1 RES1   0.0000
    71 H35     35.7153  47.0467   5.3596   H         1 RES1   0.0000
    72 H36     37.3232  47.5702   5.9047   H         1 RES1   0.0000
    73 ****    43.2425  50.4716   3.4903   Du        1 RES1   0.0000
    74 ****    36.7953  43.4078  -2.9852   Du        1 RES1   0.0000
    75 ****    37.5589  41.8597  -3.1276   Du        1 RES1   0.0000
    76 ****    36.4041  38.9295  -1.5126   Du        1 RES1   0.0000
    77 ****    36.2845  40.0148  -2.7268   Du        1 RES1   0.0000
    78 ****    34.8246  43.5600  -2.4864   Du        1 RES1   0.0000
    79 ****    33.9209  43.9509  -1.1837   Du        1 RES1   0.0000
    80 ****    39.5534  43.3609  -0.3352   Du        1 RES1   0.0000
    81 ****    38.3826  43.3598   0.8031   Du        1 RES1   0.0000
@<TRIPOS>BOND
     1     1     2    1
     2     2     3    1
     3     3     4    1
     4     4     5    1
     5     5     6    1
     6     6     7    2
     7     7     8    1
     8     8     9    2
     9     9    10    1
    10    10    11   ar
    11    11    12   ar
    12    12    13   ar
    13    13    14   ar
    14    10    14   ar
    15    14    15    1
    16    15    16   ar
    17    16    17   ar
    18    17    18   ar
    19    18    19   ar
    20    19    20   ar
    21    15    20   ar
    22    11    21    1
    23    21    22    1
    24     8    22    1
    25    22    23    1
    26     5    23    1
    27    23    24    1
    28    24    25    1
    29    25    26    1
    30     4    26    1
    31    26    27    1
    32     2    27    1
    33    27    28    1
    34    28    29    2
    35    28    30    1
    36    30    31    1
    37    27    32    1
    38    26    33    1
    39    24    34    1
    40    22    35    1
    41     7    36    1
    42     1    37    1
    43     1    38    1
    44     1    39    1
    45     2    40    1
    46     3    41    1
    47     3    42    1
    48     4    43    1
    49     5    44    1
    50     6    45    1
    51     9    46    1
    52    12    47    1
    53    16    48    1
    54    17    49    1
    55    18    50    1
    56    19    51    1
    57    20    52    1
    58    21    53    1
    59    21    54    1
    60    23    55    1
    61    24    56    1
    62    25    57    1
    63    25    58    1
    64    30    59    1
    65    30    60    1
    66    31    61    1
    67    32    62    1
    68    33    63    1
    69    33    64    1
    70    33    65    1
    71    34    66    1
    72    35    67    1
    73    35    68    1
    74    35    69    1
    75    36    70    1
    76    36    71    1
    77    36    72    1
    78    13    73    1
    79    29    74    1
    80    29    75    1
    81    31    76    1
    82    31    77    1
    83    32    78    1
    84    32    79    1
    85    34    80    1
    86    34    81    1
@<TRIPOS>SUBSTRUCTURE
     1 RES1        1 GROUP             0 ****  ****    0  
@<TRIPOS>MOLECULE
41.7093
    81    86     1     0     0
SMALL
NO_CHARGES
****
Generated from the CSD

@<TRIPOS>ATOM
     1 C       28.9614  49.9786  -7.0388   C.3       1 RES1   0.0000
     2 C       29.3317  48.7980  -6.1102   C.3       1 RES1   0.0000
     3 C       30.7821  48.2827  -6.3185   C.3       1 RES1   0.0000
     4 C       30.8772  46.9088  -5.5935   C.3       1 RES1   0.0000
     5 C       31.5173  46.9649  -4.1830   C.3       1 RES1   0.0000
     6 C       32.9982  47.1288  -4.3847   C.2       1 RES1   0.0000
     7 C       33.9282  46.4445  -3.7110   C.2       1 RES1   0.0000
     8 C       33.5596  45.4777  -2.6543   C.2       1 RES1   0.0000
     9 C       34.5303  44.7410  -2.0919   C.2       1 RES1   0.0000
    10 C       34.1492  43.7856  -0.9940   C.ar      1 RES1   0.0000
    11 C       32.8382  43.4482  -0.7393   C.ar      1 RES1   0.0000
    12 C       32.8849  42.5801   0.3472   C.ar      1 RES1   0.0000
    13 N       34.1791  42.4002   0.6952   N.ar      1 RES1   0.0000
    14 N       34.9402  43.1339  -0.1234   N.ar      1 RES1   0.0000
    15 C       36.2951  43.2527  -0.0963   C.ar      1 RES1   0.0000
    16 C       36.8867  44.5095  -0.2309   C.ar      1 RES1   0.0000
    17 C       38.2765  44.6338  -0.1972   C.ar      1 RES1   0.0000
    18 C       39.0746  43.5012  -0.0288   C.ar      1 RES1   0.0000
    19 C       38.4830  42.2438   0.1026   C.ar      1 RES1   0.0000
    20 C       37.0935  42.1192   0.0654   C.ar      1 RES1   0.0000
    21 C       31.7050  43.9983  -1.5816   C.3       1 RES1   0.0000
    22 C       32.1061  45.3758  -2.1991   C.3       1 RES1   0.0000
    23 C       31.1814  45.6437  -3.4313   C.3       1 RES1   0.0000
    24 C       29.6425  45.5284  -3.1729   C.3       1 RES1   0.0000
    25 C       28.8889  45.3425  -4.5110   C.3       1 RES1   0.0000
    26 C       29.3560  46.6470  -5.2864   C.3       1 RES1   0.0000
    27 C       28.4183  47.5436  -6.2102   C.3       1 RES1   0.0000
    28 C       27.0756  47.7094  -5.5365   C.2       1 RES1   0.0000
    29 O       26.7504  48.7937  -5.0813   O.2       1 RES1   0.0000
    30 C       26.1500  46.5308  -5.3967   C.3       1 RES1   0.0000
    31 O       24.9454  46.8072  -6.1211   O.3       1 RES1   0.0000
    32 O       28.0289  47.3218  -7.5866   O.3       1 RES1   0.0000
    33 C       29.4111  45.6303  -6.5237   C.3       1 RES1   0.0000
    34 O       29.0980  46.7180  -2.5905   O.3       1 RES1   0.0000
    35 C       32.0275  46.4423  -1.0778   C.3       1 RES1   0.0000
    36 C       35.3805  46.6965  -4.0398   C.3       1 RES1   0.0000
    37 H1      27.9012  50.2368  -6.9009   H         1 RES1   0.0000
    38 H2      29.5781  50.8484  -6.7669   H         1 RES1   0.0000
    39 H3      29.1417  49.7471  -8.0979   H         1 RES1   0.0000
    40 H4      29.3124  49.1741  -5.0775   H         1 RES1   0.0000
    41 H5      30.9518  48.1313  -7.3949   H         1 RES1   0.0000
    42 H6      31.5096  49.0185  -5.9465   H         1 RES1   0.0000
    43 H7      31.5426  46.2320  -6.1570   H         1 RES1   0.0000
    44 H8      31.1191  47.8311  -3.6346   H         1 RES1   0.0000
    45 H9      33.3212  47.8511  -5.1318   H         1 RES1   0.0000
    46 H10     35.5802  44.7909  -2.3699   H         1 RES1   0.0000
    47 H11     32.0291  42.1233   0.8308   H         1 RES1   0.0000
    48 H12     36.2660  45.3890  -0.3610   H         1 RES1   0.0000
    49 H13     38.7361  45.6103  -0.3016   H         1 RES1   0.0000
    50 H14     40.1542  43.5980  -0.0002   H         1 RES1   0.0000
    51 H15     39.1030  41.3637   0.2332   H         1 RES1   0.0000
    52 H16     36.6345  41.1415   0.1624   H         1 RES1   0.0000
    53 H17     30.8137  44.0703  -0.9419   H         1 RES1   0.0000
    54 H18     31.5226  43.2621  -2.3784   H         1 RES1   0.0000
    55 H19     31.4359  44.8319  -4.1296   H         1 RES1   0.0000
    56 H20     29.3813  44.6670  -2.5432   H         1 RES1   0.0000
    57 H21     29.0750  44.2842  -4.7617   H         1 RES1   0.0000
    58 H22     27.8129  45.4407  -4.3011   H         1 RES1   0.0000
    59 H23     26.6001  45.6144  -5.7987   H         1 RES1   0.0000
    60 H24     25.8967  46.3806  -4.3362   H         1 RES1   0.0000
    61 H25     24.2059  46.8756  -5.5274   H         1 RES1   0.0000
    62 H26     27.2306  47.7553  -7.8643   H         1 RES1   0.0000
    63 H27     29.8200  46.0398  -7.4573   H         1 RES1   0.0000
    64 H28     30.0782  44.7550  -6.4190   H         1 RES1   0.0000
    65 H29     28.4114  45.2222  -6.7603   H         1 RES1   0.0000
    66 H30     28.2329  46.5904  -2.2289   H         1 RES1   0.0000
    67 H31     32.8741  46.2961  -0.3905   H         1 RES1   0.0000
    68 H32     31.1091  46.3515  -0.4841   H         1 RES1   0.0000
    69 H33     32.0964  47.4556  -1.4983   H         1 RES1   0.0000
    70 H34     35.8224  45.7919  -4.4833   H         1 RES1   0.0000
    71 H35     35.5042  47.5221  -4.7557   H         1 RES1   0.0000
    72 H36     35.9287  46.9626  -3.1237   H         1 RES1   0.0000
    73 ****    34.5102  41.8181   1.4378   Du        1 RES1   0.0000
    74 ****    27.3725  49.5733  -5.1538   Du        1 RES1   0.0000
    75 ****    25.8619  48.9027  -4.6357   Du        1 RES1   0.0000
    76 ****    24.7765  46.0674  -6.7724   Du        1 RES1   0.0000
    77 ****    25.0502  47.6697  -6.6161   Du        1 RES1   0.0000
    78 ****    27.9051  46.3380  -7.7160   Du        1 RES1   0.0000
    79 ****    28.7729  47.6440  -8.1720   Du        1 RES1   0.0000
    80 ****    29.0471  47.4240  -3.2969   Du        1 RES1   0.0000
    81 ****    29.7076  47.0221  -1.8585   Du        1 RES1   0.0000
@<TRIPOS>BOND
     1     1     2    1
     2     2     3    1
     3     3     4    1
     4     4     5    1
     5     5     6    1
     6     6     7    2
     7     7     8    1
     8     8     9    2
     9     9    10    1
    10    10    11   ar
    11    11    12   ar
    12    12    13   ar
    13    13    14   ar
    14    10    14   ar
    15    14    15    1
    16    15    16   ar
    17    16    17   ar
    18    17    18   ar
    19    18    19   ar
    20    19    20   ar
    21    15    20   ar
    22    11    21    1
    23    21    22    1
    24     8    22    1
    25    22    23    1
    26     5    23    1
    27    23    24    1
    28    24    25    1
    29    25    26    1
    30     4    26    1
    31    26    27    1
    32     2    27    1
    33    27    28    1
    34    28    29    2
    35    28    30    1
    36    30    31    1
    37    27    32    1
    38    26    33    1
    39    24    34    1
    40    22    35    1
    41     7    36    1
    42     1    37    1
    43     1    38    1
    44     1    39    1
    45     2    40    1
    46     3    41    1
    47     3    42    1
    48     4    43    1
    49     5    44    1
    50     6    45    1
    51     9    46    1
    52    12    47    1
    53    16    48    1
    54    17    49    1
    55    18    50    1
    56    19    51    1
    57    20    52    1
    58    21    53    1
    59    21    54    1
    60    23    55    1
    61    24    56    1
    62    25    57    1
    63    25    58    1
    64    30    59    1
    65    30    60    1
    66    31    61    1
    67    32    62    1
    68    33    63    1
    69    33    64    1
    70    33    65    1
    71    34    66    1
    72    35    67    1
    73    35    68    1
    74    35    69    1
    75    36    70    1
    76    36    71    1
    77    36    72    1
    78    13    73    1
    79    29    74    1
    80    29    75    1
    81    31    76    1
    82    31    77    1
    83    32    78    1
    84    32    79    1
    85    34    80    1
    86    34    81    1
@<TRIPOS>SUBSTRUCTURE
     1 RES1        1 GROUP             0 ****  ****    0  
@<TRIPOS>MOLECULE
41.6696
    81    86     1     0     0
SMALL
NO_CHARGES
****
Generated from the CSD

@<TRIPOS>ATOM
     1 C       23.3365  26.6426  14.8556   C.3       1 RES1   0.0000
     2 C       24.1001  27.6230  15.7769   C.3       1 RES1   0.0000
     3 C       25.6059  27.7563  15.4204   C.3       1 RES1   0.0000
     4 C       26.2884  28.4729  16.6216   C.3       1 RES1   0.0000
     5 C       26.5096  29.9946  16.4261   C.3       1 RES1   0.0000
     6 C       27.6710  30.1466  15.4835   C.2       1 RES1   0.0000
     7 C       28.6727  31.0141  15.6598   C.2       1 RES1   0.0000
     8 C       28.6913  31.9477  16.8066   C.2       1 RES1   0.0000
     9 C       29.7762  32.7162  16.9908   C.2       1 RES1   0.0000
    10 C       29.7704  33.6869  18.1402   C.ar      1 RES1   0.0000
    11 C       28.8317  33.6249  19.1463   C.ar      1 RES1   0.0000
    12 C       29.1308  34.6854  19.9961   C.ar      1 RES1   0.0000
    13 N       30.2198  35.3255  19.5137   N.ar      1 RES1   0.0000
    14 N       30.6027  34.7136  18.3883   N.ar      1 RES1   0.0000
    15 C       31.6415  35.0583  17.5803   C.ar      1 RES1   0.0000
    16 C       31.4119  35.3391  16.2327   C.ar      1 RES1   0.0000
    17 C       32.4756  35.6987  15.4037   C.ar      1 RES1   0.0000
    18 C       33.7690  35.7777  15.9226   C.ar      1 RES1   0.0000
    19 C       33.9990  35.4937  17.2697   C.ar      1 RES1   0.0000
    20 C       32.9359  35.1307  18.0976   C.ar      1 RES1   0.0000
    21 C       27.7690  32.5447  19.1672   C.3       1 RES1   0.0000
    22 C       27.4697  32.0489  17.7165   C.3       1 RES1   0.0000
    23 C       26.8058  30.6365  17.8130   C.3       1 RES1   0.0000
    24 C       25.5596  30.5263  18.7527   C.3       1 RES1   0.0000
    25 C       25.3020  29.0476  19.1267   C.3       1 RES1   0.0000
    26 C       25.1267  28.4132  17.6817   C.3       1 RES1   0.0000
    27 C       24.0519  27.3023  17.2977   C.3       1 RES1   0.0000
    28 C       22.7338  27.6439  17.9534   C.2       1 RES1   0.0000
    29 O       21.8097  28.0711  17.2810   O.2       1 RES1   0.0000
    30 C       22.5678  27.4889  19.4414   C.3       1 RES1   0.0000
    31 O       22.7829  26.1148  19.7846   O.3       1 RES1   0.0000
    32 O       24.1190  25.8713  17.5053   O.3       1 RES1   0.0000
    33 C       25.9613  27.2155  18.3424   C.3       1 RES1   0.0000
    34 O       24.3573  30.9740  18.1166   O.3       1 RES1   0.0000
    35 C       26.6113  33.1287  17.0108   C.3       1 RES1   0.0000
    36 C       29.7876  31.0366  14.6413   C.3       1 RES1   0.0000
    37 H1      22.3027  26.5303  15.2140   H         1 RES1   0.0000
    38 H2      23.3171  27.0580  13.8369   H         1 RES1   0.0000
    39 H3      23.8136  25.6534  14.8144   H         1 RES1   0.0000
    40 H4      23.6813  28.6253  15.6086   H         1 RES1   0.0000
    41 H5      26.0343  26.7486  15.3151   H         1 RES1   0.0000
    42 H6      25.7306  28.2941  14.4694   H         1 RES1   0.0000
    43 H7      27.3081  28.0759  16.7658   H         1 RES1   0.0000
    44 H8      25.6087  30.4410  15.9803   H         1 RES1   0.0000
    45 H9      27.6879  29.5015  14.6073   H         1 RES1   0.0000
    46 H10     30.6616  32.6923  16.3602   H         1 RES1   0.0000
    47 H11     28.5850  34.9516  20.8940   H         1 RES1   0.0000
    48 H12     30.4067  35.2782  15.8304   H         1 RES1   0.0000
    49 H13     32.2972  35.9171  14.3566   H         1 RES1   0.0000
    50 H14     34.5950  36.0595  15.2792   H         1 RES1   0.0000
    51 H15     35.0038  35.5547  17.6729   H         1 RES1   0.0000
    52 H16     33.1158  34.9052  19.1429   H         1 RES1   0.0000
    53 H17     26.8775  32.9584  19.6600   H         1 RES1   0.0000
    54 H18     28.1724  31.7218  19.7755   H         1 RES1   0.0000
    55 H19     27.5886  30.0110  18.2686   H         1 RES1   0.0000
    56 H20     25.6913  31.0708  19.6978   H         1 RES1   0.0000
    57 H21     26.0761  28.8393  19.8849   H         1 RES1   0.0000
    58 H22     24.3281  29.0004  19.6373   H         1 RES1   0.0000
    59 H23     23.2868  28.1065  19.9941   H         1 RES1   0.0000
    60 H24     21.5438  27.7685  19.7324   H         1 RES1   0.0000
    61 H25     23.5810  25.7902  19.3827   H         1 RES1   0.0000
    62 H26     23.7294  25.3369  16.8234   H         1 RES1   0.0000
    63 H27     26.2539  26.4068  17.6591   H         1 RES1   0.0000
    64 H28     26.9611  27.4668  18.7415   H         1 RES1   0.0000
    65 H29     25.4104  26.7481  19.1790   H         1 RES1   0.0000
    66 H30     24.3621  30.8396  17.1798   H         1 RES1   0.0000
    67 H31     27.2505  33.9941  16.7805   H         1 RES1   0.0000
    68 H32     25.7947  33.4901  17.6486   H         1 RES1   0.0000
    69 H33     26.1996  32.7438  16.0671   H         1 RES1   0.0000
    70 H34     30.7248  30.7021  15.1103   H         1 RES1   0.0000
    71 H35     29.5794  30.3760  13.7871   H         1 RES1   0.0000
    72 H36     29.9151  32.0577  14.2517   H         1 RES1   0.0000
    73 ****    30.6629  36.1205  19.9279   Du        1 RES1   0.0000
    74 ****    21.9242  28.1953  16.2954   Du        1 RES1   0.0000
    75 ****    20.9378  28.2969  17.7155   Du        1 RES1   0.0000
    76 ****    22.0081  25.5706  19.4629   Du        1 RES1   0.0000
    77 ****    22.8584  26.0323  20.7784   Du        1 RES1   0.0000
    78 ****    23.6503  25.6632  18.3639   Du        1 RES1   0.0000
    79 ****    25.0831  25.6169  17.5817   Du        1 RES1   0.0000
    80 ****    24.2459  31.9512  18.2976   Du        1 RES1   0.0000
    81 ****    23.5849  30.4726  18.5065   Du        1 RES1   0.0000
@<TRIPOS>BOND
     1     1     2    1
     2     2     3    1
     3     3     4    1
     4     4     5    1
     5     5     6    1
     6     6     7    2
     7     7     8    1
     8     8     9    2
     9     9    10    1
    10    10    11   ar
    11    11    12   ar
    12    12    13   ar
    13    13    14   ar
    14    10    14   ar
    15    14    15    1
    16    15    16   ar
    17    16    17   ar
    18    17    18   ar
    19    18    19   ar
    20    19    20   ar
    21    15    20   ar
    22    11    21    1
    23    21    22    1
    24     8    22    1
    25    22    23    1
    26     5    23    1
    27    23    24    1
    28    24    25    1
    29    25    26    1
    30     4    26    1
    31    26    27    1
    32     2    27    1
    33    27    28    1
    34    28    29    2
    35    28    30    1
    36    30    31    1
    37    27    32    1
    38    26    33    1
    39    24    34    1
    40    22    35    1
    41     7    36    1
    42     1    37    1
    43     1    38    1
    44     1    39    1
    45     2    40    1
    46     3    41    1
    47     3    42    1
    48     4    43    1
    49     5    44    1
    50     6    45    1
    51     9    46    1
    52    12    47    1
    53    16    48    1
    54    17    49    1
    55    18    50    1
    56    19    51    1
    57    20    52    1
    58    21    53    1
    59    21    54    1
    60    23    55    1
    61    24    56    1
    62    25    57    1
    63    25    58    1
    64    30    59    1
    65    30    60    1
    66    31    61    1
    67    32    62    1
    68    33    63    1
    69    33    64    1
    70    33    65    1
    71    34    66    1
    72    35    67    1
    73    35    68    1
    74    35    69    1
    75    36    70    1
    76    36    71    1
    77    36    72    1
    78    13    73    1
    79    29    74    1
    80    29    75    1
    81    31    76    1
    82    31    77    1
    83    32    78    1
    84    32    79    1
    85    34    80    1
    86    34    81    1
@<TRIPOS>SUBSTRUCTURE
     1 RES1        1 GROUP             0 ****  ****    0  
@<TRIPOS>MOLECULE
41.3715
    81    86     1     0     0
SMALL
NO_CHARGES
****
Generated from the CSD

@<TRIPOS>ATOM
     1 C       29.0446  50.2455  -7.2803   C.3       1 RES1   0.0000
     2 C       29.3697  49.0531  -6.3499   C.3       1 RES1   0.0000
     3 C       30.8186  48.5190  -6.5174   C.3       1 RES1   0.0000
     4 C       30.8723  47.1387  -5.8005   C.3       1 RES1   0.0000
     5 C       31.4693  47.1755  -4.3705   C.3       1 RES1   0.0000
     6 C       32.9578  47.3202  -4.5253   C.2       1 RES1   0.0000
     7 C       33.8570  46.6180  -3.8287   C.2       1 RES1   0.0000
     8 C       33.4428  45.6488  -2.7913   C.2       1 RES1   0.0000
     9 C       34.3854  44.8944  -2.2050   C.2       1 RES1   0.0000
    10 C       33.9574  43.9364  -1.1268   C.ar      1 RES1   0.0000
    11 C       32.6347  43.6156  -0.9151   C.ar      1 RES1   0.0000
    12 C       32.6358  42.7390   0.1655   C.ar      1 RES1   0.0000
    13 N       33.9161  42.5385   0.5518   N.ar      1 RES1   0.0000
    14 N       34.7122  43.2674  -0.2373   N.ar      1 RES1   0.0000
    15 C       36.0671  43.3670  -0.1676   C.ar      1 RES1   0.0000
    16 C       36.8398  42.2227   0.0353   C.ar      1 RES1   0.0000
    17 C       38.2304  42.3222   0.1010   C.ar      1 RES1   0.0000
    18 C       38.8483  43.5663  -0.0364   C.ar      1 RES1   0.0000
    19 C       38.0752  44.7112  -0.2360   C.ar      1 RES1   0.0000
    20 C       36.6846  44.6120  -0.2982   C.ar      1 RES1   0.0000
    21 C       31.5357  44.1876  -1.7876   C.3       1 RES1   0.0000
    22 C       31.9746  45.5639  -2.3818   C.3       1 RES1   0.0000
    23 C       31.0922  45.8537  -3.6398   C.3       1 RES1   0.0000
    24 C       29.5446  45.7580  -3.4298   C.3       1 RES1   0.0000
    25 C       28.8302  45.5925  -4.7918   C.3       1 RES1   0.0000
    26 C       29.3389  46.8959  -5.5423   C.3       1 RES1   0.0000
    27 C       28.4427  47.8124  -6.4876   C.3       1 RES1   0.0000
    28 C       27.0822  47.9920  -5.8543   C.2       1 RES1   0.0000
    29 O       26.7685  49.0699  -5.3765   O.2       1 RES1   0.0000
    30 C       26.1236  46.8338  -5.7824   C.3       1 RES1   0.0000
    31 O       25.8484  46.5531  -4.4048   O.3       1 RES1   0.0000
    32 O       28.0929  47.6061  -7.8770   O.3       1 RES1   0.0000
    33 C       29.4182  45.8876  -6.7852   C.3       1 RES1   0.0000
    34 O       28.9989  46.9509  -2.8552   O.3       1 RES1   0.0000
    35 C       31.8761  46.6232  -1.2553   C.3       1 RES1   0.0000
    36 C       35.3222  46.8520  -4.1106   C.3       1 RES1   0.0000
    37 H1      27.9842  50.5175  -7.1730   H         1 RES1   0.0000
    38 H2      29.6644  51.1046  -6.9828   H         1 RES1   0.0000
    39 H3      29.2542  50.0193  -8.3351   H         1 RES1   0.0000
    40 H4      29.3237  49.4218  -5.3154   H         1 RES1   0.0000
    41 H5      31.0194  48.3732  -7.5892   H         1 RES1   0.0000
    42 H6      31.5444  49.2418  -6.1175   H         1 RES1   0.0000
    43 H7      31.5455  46.4568  -6.3484   H         1 RES1   0.0000
    44 H8      31.0663  48.0432  -3.8280   H         1 RES1   0.0000
    45 H9      33.3136  48.0433  -5.2565   H         1 RES1   0.0000
    46 H10     35.4440  44.9317  -2.4501   H         1 RES1   0.0000
    47 H11     31.7593  42.2907   0.6191   H         1 RES1   0.0000
    48 H12     36.3591  41.2565   0.1412   H         1 RES1   0.0000
    49 H13     38.8308  41.4332   0.2584   H         1 RES1   0.0000
    50 H14     39.9288  43.6434   0.0122   H         1 RES1   0.0000
    51 H15     38.5551  45.6778  -0.3425   H         1 RES1   0.0000
    52 H16     36.0841  45.5024  -0.4482   H         1 RES1   0.0000
    53 H17     30.6261  44.2675  -1.1751   H         1 RES1   0.0000
    54 H18     31.3679  43.4599  -2.5953   H         1 RES1   0.0000
    55 H19     31.3569  45.0435  -4.3362   H         1 RES1   0.0000
    56 H20     29.2522  44.8958  -2.8150   H         1 RES1   0.0000
    57 H21     29.0094  44.5335  -5.0449   H         1 RES1   0.0000
    58 H22     27.7497  45.7042  -4.6143   H         1 RES1   0.0000
    59 H23     25.1782  47.0604  -6.2911   H         1 RES1   0.0000
    60 H24     26.5816  45.9431  -6.2388   H         1 RES1   0.0000
    61 H25     24.9401  46.2968  -4.2903   H         1 RES1   0.0000
    62 H26     28.2308  48.3497  -8.4518   H         1 RES1   0.0000
    63 H27     29.8613  46.2982  -7.7026   H         1 RES1   0.0000
    64 H28     30.0696  45.0023  -6.6668   H         1 RES1   0.0000
    65 H29     28.4208  45.4953  -7.0556   H         1 RES1   0.0000
    66 H30     29.1481  47.7195  -3.3868   H         1 RES1   0.0000
    67 H31     32.6991  46.4601  -0.5434   H         1 RES1   0.0000
    68 H32     30.9387  46.5409  -0.6908   H         1 RES1   0.0000
    69 H33     31.9719  47.6384  -1.6656   H         1 RES1   0.0000
    70 H34     35.7650  45.9446  -4.5473   H         1 RES1   0.0000
    71 H35     35.4793  47.6811  -4.8160   H         1 RES1   0.0000
    72 H36     35.8454  47.1037  -3.1760   H         1 RES1   0.0000
    73 ****    34.2161  41.9464   1.2997   Du        1 RES1   0.0000
    74 ****    27.4116  49.8352  -5.4038   Du        1 RES1   0.0000
    75 ****    25.8682  49.1882  -4.9576   Du        1 RES1   0.0000
    76 ****    26.0301  47.3717  -3.8600   Du        1 RES1   0.0000
    77 ****    26.4411  45.8091  -4.0964   Du        1 RES1   0.0000
    78 ****    27.1238  47.3628  -7.9169   Du        1 RES1   0.0000
    79 ****    28.6421  46.8451  -8.2223   Du        1 RES1   0.0000
    80 ****    29.4211  47.0955  -1.9604   Du        1 RES1   0.0000
    81 ****    28.0128  46.8280  -2.7426   Du        1 RES1   0.0000
@<TRIPOS>BOND
     1     1     2    1
     2     2     3    1
     3     3     4    1
     4     4     5    1
     5     5     6    1
     6     6     7    2
     7     7     8    1
     8     8     9    2
     9     9    10    1
    10    10    11   ar
    11    11    12   ar
    12    12    13   ar
    13    13    14   ar
    14    10    14   ar
    15    14    15    1
    16    15    16   ar
    17    16    17   ar
    18    17    18   ar
    19    18    19   ar
    20    19    20   ar
    21    15    20   ar
    22    11    21    1
    23    21    22    1
    24     8    22    1
    25    22    23    1
    26     5    23    1
    27    23    24    1
    28    24    25    1
    29    25    26    1
    30     4    26    1
    31    26    27    1
    32     2    27    1
    33    27    28    1
    34    28    29    2
    35    28    30    1
    36    30    31    1
    37    27    32    1
    38    26    33    1
    39    24    34    1
    40    22    35    1
    41     7    36    1
    42     1    37    1
    43     1    38    1
    44     1    39    1
    45     2    40    1
    46     3    41    1
    47     3    42    1
    48     4    43    1
    49     5    44    1
    50     6    45    1
    51     9    46    1
    52    12    47    1
    53    16    48    1
    54    17    49    1
    55    18    50    1
    56    19    51    1
    57    20    52    1
    58    21    53    1
    59    21    54    1
    60    23    55    1
    61    24    56    1
    62    25    57    1
    63    25    58    1
    64    30    59    1
    65    30    60    1
    66    31    61    1
    67    32    62    1
    68    33    63    1
    69    33    64    1
    70    33    65    1
    71    34    66    1
    72    35    67    1
    73    35    68    1
    74    35    69    1
    75    36    70    1
    76    36    71    1
    77    36    72    1
    78    13    73    1
    79    29    74    1
    80    29    75    1
    81    31    76    1
    82    31    77    1
    83    32    78    1
    84    32    79    1
    85    34    80    1
    86    34    81    1
@<TRIPOS>SUBSTRUCTURE
     1 RES1        1 GROUP             0 ****  ****    0  
@<TRIPOS>MOLECULE
41.1508
    81    86     1     0     0
SMALL
NO_CHARGES
****
Generated from the CSD

@<TRIPOS>ATOM
     1 C       26.3319  47.8822  -1.4089   C.3       1 RES1   0.0000
     2 C       27.4976  46.8841  -1.6038   C.3       1 RES1   0.0000
     3 C       28.8703  47.5766  -1.8242   C.3       1 RES1   0.0000
     4 C       29.8446  46.4820  -2.3486   C.3       1 RES1   0.0000
     5 C       30.7694  45.8675  -1.2671   C.3       1 RES1   0.0000
     6 C       31.8351  46.8876  -0.9768   C.2       1 RES1   0.0000
     7 C       33.1355  46.6021  -0.8575   C.2       1 RES1   0.0000
     8 C       33.6327  45.2132  -0.9619   C.2       1 RES1   0.0000
     9 C       34.9582  45.0032  -0.9448   C.2       1 RES1   0.0000
    10 C       35.4520  43.5839  -1.0168   C.ar      1 RES1   0.0000
    11 C       34.6264  42.5382  -1.3662   C.ar      1 RES1   0.0000
    12 C       35.4227  41.3993  -1.2946   C.ar      1 RES1   0.0000
    13 N       36.6729  41.7736  -0.9403   N.ar      1 RES1   0.0000
    14 N       36.6832  43.1002  -0.7744   N.ar      1 RES1   0.0000
    15 C       37.7381  43.8709  -0.3951   C.ar      1 RES1   0.0000
    16 C       38.1565  44.9264  -1.2066   C.ar      1 RES1   0.0000
    17 C       39.2349  45.7219  -0.8160   C.ar      1 RES1   0.0000
    18 C       39.8946  45.4617   0.3862   C.ar      1 RES1   0.0000
    19 C       39.4781  44.4040   1.1962   C.ar      1 RES1   0.0000
    20 C       38.4021  43.6066   0.8039   C.ar      1 RES1   0.0000
    21 C       33.1747  42.7692  -1.7343   C.3       1 RES1   0.0000
    22 C       32.6362  44.0592  -1.0373   C.3       1 RES1   0.0000
    23 C       31.3743  44.5451  -1.8227   C.3       1 RES1   0.0000
    24 C       30.2548  43.4765  -2.0524   C.3       1 RES1   0.0000
    25 C       29.3234  43.9184  -3.2057   C.3       1 RES1   0.0000
    26 C       28.8264  45.3207  -2.6511   C.3       1 RES1   0.0000
    27 C       27.3389  45.8759  -2.7770   C.3       1 RES1   0.0000
    28 C       26.3679  44.7535  -2.4919   C.2       1 RES1   0.0000
    29 O       25.4690  44.5087  -3.2799   O.2       1 RES1   0.0000
    30 C       26.4870  43.9562  -1.2209   C.3       1 RES1   0.0000
    31 O       26.8409  42.6095  -1.5576   O.3       1 RES1   0.0000
    32 O       26.7105  46.5254  -3.9078   O.3       1 RES1   0.0000
    33 C       28.9938  45.7444  -4.1874   C.3       1 RES1   0.0000
    34 O       29.4035  43.3264  -0.9107   O.3       1 RES1   0.0000
    35 C       32.3898  43.7272   0.4560   C.3       1 RES1   0.0000
    36 C       34.0958  47.7366  -0.5901   C.3       1 RES1   0.0000
    37 H1      25.3823  47.3309  -1.3444   H         1 RES1   0.0000
    38 H2      26.4901  48.4303  -0.4681   H         1 RES1   0.0000
    39 H3      26.2696  48.6138  -2.2266   H         1 RES1   0.0000
    40 H4      27.6120  46.3253  -0.6642   H         1 RES1   0.0000
    41 H5      28.7548  48.3518  -2.5961   H         1 RES1   0.0000
    42 H6      29.2154  48.0524  -0.8949   H         1 RES1   0.0000
    43 H7      30.5482  46.9227  -3.0760   H         1 RES1   0.0000
    44 H8      30.1860  45.6703  -0.3558   H         1 RES1   0.0000
    45 H9      31.5154  47.9215  -0.8618   H         1 RES1   0.0000
    46 H10     35.7051  45.7901  -0.8749   H         1 RES1   0.0000
    47 H11     35.0969  40.3845  -1.4920   H         1 RES1   0.0000
    48 H12     37.6431  45.1284  -2.1400   H         1 RES1   0.0000
    49 H13     39.5599  46.5421  -1.4463   H         1 RES1   0.0000
    50 H14     40.7308  46.0812   0.6909   H         1 RES1   0.0000
    51 H15     39.9908  44.2016   2.1301   H         1 RES1   0.0000
    52 H16     38.0821  42.7818   1.4309   H         1 RES1   0.0000
    53 H17     32.6075  41.8717  -1.4487   H         1 RES1   0.0000
    54 H18     33.1448  42.8861  -2.8277   H         1 RES1   0.0000
    55 H19     31.7681  44.7947  -2.8198   H         1 RES1   0.0000
    56 H20     30.6574  42.4936  -2.3331   H         1 RES1   0.0000
    57 H21     29.9191  43.7030  -4.1092   H         1 RES1   0.0000
    58 H22     28.4616  43.2338  -3.2157   H         1 RES1   0.0000
    59 H23     27.2581  44.3674  -0.5574   H         1 RES1   0.0000
    60 H24     25.5193  43.9455  -0.6966   H         1 RES1   0.0000
    61 H25     27.3214  42.2016  -0.8458   H         1 RES1   0.0000
    62 H26     25.8621  46.9179  -3.7387   H         1 RES1   0.0000
    63 H27     28.8411  46.8100  -4.4057   H         1 RES1   0.0000
    64 H28     30.0001  45.6259  -4.6293   H         1 RES1   0.0000
    65 H29     28.3069  45.1785  -4.8430   H         1 RES1   0.0000
    66 H30     28.6835  42.7311  -1.0617   H         1 RES1   0.0000
    67 H31     33.3619  43.6369   0.9634   H         1 RES1   0.0000
    68 H32     31.8665  42.7715   0.5865   H         1 RES1   0.0000
    69 H33     31.8194  44.5298   0.9446   H         1 RES1   0.0000
    70 H34     34.7657  47.8662  -1.4531   H         1 RES1   0.0000
    71 H35     33.5723  48.6886  -0.4193   H         1 RES1   0.0000
    72 H36     34.6915  47.5160   0.3082   H         1 RES1   0.0000
    73 ****    37.4557  41.1626  -0.8226   Du        1 RES1   0.0000
    74 ****    25.3745  45.0508  -4.1148   Du        1 RES1   0.0000
    75 ****    24.8268  43.7659  -3.0906   Du        1 RES1   0.0000
    76 ****    27.4119  42.6152  -2.3786   Du        1 RES1   0.0000
    77 ****    26.0079  42.0853  -1.7346   Du        1 RES1   0.0000
    78 ****    26.5947  45.8424  -4.6289   Du        1 RES1   0.0000
    79 ****    27.3244  47.2471  -4.2277   Du        1 RES1   0.0000
    80 ****    29.0308  44.2229  -0.6712   Du        1 RES1   0.0000
    81 ****    29.9503  42.9785  -0.1491   Du        1 RES1   0.0000
@<TRIPOS>BOND
     1     1     2    1
     2     2     3    1
     3     3     4    1
     4     4     5    1
     5     5     6    1
     6     6     7    2
     7     7     8    1
     8     8     9    2
     9     9    10    1
    10    10    11   ar
    11    11    12   ar
    12    12    13   ar
    13    13    14   ar
    14    10    14   ar
    15    14    15    1
    16    15    16   ar
    17    16    17   ar
    18    17    18   ar
    19    18    19   ar
    20    19    20   ar
    21    15    20   ar
    22    11    21    1
    23    21    22    1
    24     8    22    1
    25    22    23    1
    26     5    23    1
    27    23    24    1
    28    24    25    1
    29    25    26    1
    30     4    26    1
    31    26    27    1
    32     2    27    1
    33    27    28    1
    34    28    29    2
    35    28    30    1
    36    30    31    1
    37    27    32    1
    38    26    33    1
    39    24    34    1
    40    22    35    1
    41     7    36    1
    42     1    37    1
    43     1    38    1
    44     1    39    1
    45     2    40    1
    46     3    41    1
    47     3    42    1
    48     4    43    1
    49     5    44    1
    50     6    45    1
    51     9    46    1
    52    12    47    1
    53    16    48    1
    54    17    49    1
    55    18    50    1
    56    19    51    1
    57    20    52    1
    58    21    53    1
    59    21    54    1
    60    23    55    1
    61    24    56    1
    62    25    57    1
    63    25    58    1
    64    30    59    1
    65    30    60    1
    66    31    61    1
    67    32    62    1
    68    33    63    1
    69    33    64    1
    70    33    65    1
    71    34    66    1
    72    35    67    1
    73    35    68    1
    74    35    69    1
    75    36    70    1
    76    36    71    1
    77    36    72    1
    78    13    73    1
    79    29    74    1
    80    29    75    1
    81    31    76    1
    82    31    77    1
    83    32    78    1
    84    32    79    1
    85    34    80    1
    86    34    81    1
@<TRIPOS>SUBSTRUCTURE
     1 RES1        1 GROUP             0 ****  ****    0  
@<TRIPOS>MOLECULE
40.2376
    81    86     1     0     0
SMALL
NO_CHARGES
****
Generated from the CSD

@<TRIPOS>ATOM
     1 C       29.2222  50.2546  -7.2555   C.3       1 RES1   0.0000
     2 C       29.5178  49.0613  -6.3164   C.3       1 RES1   0.0000
     3 C       30.9525  48.4894  -6.4808   C.3       1 RES1   0.0000
     4 C       30.9718  47.1136  -5.7536   C.3       1 RES1   0.0000
     5 C       31.5706  47.1459  -4.3243   C.3       1 RES1   0.0000
     6 C       33.0622  47.2516  -4.4810   C.2       1 RES1   0.0000
     7 C       33.9439  46.5321  -3.7797   C.2       1 RES1   0.0000
     8 C       33.5060  45.5815  -2.7349   C.2       1 RES1   0.0000
     9 C       34.4297  44.8079  -2.1435   C.2       1 RES1   0.0000
    10 C       33.9784  43.8691  -1.0579   C.ar      1 RES1   0.0000
    11 C       32.6482  43.5834  -0.8431   C.ar      1 RES1   0.0000
    12 C       32.6279  42.7152   0.2440   C.ar      1 RES1   0.0000
    13 N       33.9029  42.4852   0.6311   N.ar      1 RES1   0.0000
    14 N       34.7166  43.1878  -0.1639   N.ar      1 RES1   0.0000
    15 C       36.0737  43.2535  -0.0957   C.ar      1 RES1   0.0000
    16 C       36.7181  44.4852  -0.2191   C.ar      1 RES1   0.0000
    17 C       38.1101  44.5553  -0.1433   C.ar      1 RES1   0.0000
    18 C       38.8574  43.3934   0.0560   C.ar      1 RES1   0.0000
    19 C       38.2131  42.1610   0.1761   C.ar      1 RES1   0.0000
    20 C       36.8215  42.0907   0.0968   C.ar      1 RES1   0.0000
    21 C       31.5633  44.1766  -1.7193   C.3       1 RES1   0.0000
    22 C       32.0365  45.5369  -2.3239   C.3       1 RES1   0.0000
    23 C       31.1607  45.8396  -3.5835   C.3       1 RES1   0.0000
    24 C       29.6114  45.7847  -3.3719   C.3       1 RES1   0.0000
    25 C       28.8919  45.6271  -4.7322   C.3       1 RES1   0.0000
    26 C       29.4329  46.9117  -5.4928   C.3       1 RES1   0.0000
    27 C       28.5594  47.8434  -6.4444   C.3       1 RES1   0.0000
    28 C       27.2045  48.0622  -5.8116   C.2       1 RES1   0.0000
    29 O       26.3966  47.1489  -5.7671   O.2       1 RES1   0.0000
    30 C       26.8360  49.4149  -5.2641   C.3       1 RES1   0.0000
    31 O       25.7116  49.9143  -5.9980   O.3       1 RES1   0.0000
    32 O       28.2035  47.6358  -7.8320   O.3       1 RES1   0.0000
    33 C       29.4857  45.8925  -6.7281   C.3       1 RES1   0.0000
    34 O       29.0964  46.9952  -2.8060   O.3       1 RES1   0.0000
    35 C       31.9657  46.6066  -1.2053   C.3       1 RES1   0.0000
    36 C       35.4142  46.7269  -4.0643   C.3       1 RES1   0.0000
    37 H1      28.1692  50.5542  -7.1497   H         1 RES1   0.0000
    38 H2      29.8638  51.0998  -6.9648   H         1 RES1   0.0000
    39 H3      29.4252  50.0152  -8.3087   H         1 RES1   0.0000
    40 H4      29.4818  49.4388  -5.2847   H         1 RES1   0.0000
    41 H5      31.1487  48.3306  -7.5516   H         1 RES1   0.0000
    42 H6      31.6966  49.1966  -6.0867   H         1 RES1   0.0000
    43 H7      31.6270  46.4107  -6.2968   H         1 RES1   0.0000
    44 H8      31.1902  48.0275  -3.7881   H         1 RES1   0.0000
    45 H9      33.4357  47.9601  -5.2178   H         1 RES1   0.0000
    46 H10     35.4887  44.8165  -2.3895   H         1 RES1   0.0000
    47 H11     31.7407  42.2926   0.7014   H         1 RES1   0.0000
    48 H12     36.1368  45.3875  -0.3731   H         1 RES1   0.0000
    49 H13     38.6108  45.5123  -0.2389   H         1 RES1   0.0000
    50 H14     39.9387  43.4480   0.1173   H         1 RES1   0.0000
    51 H15     38.7936  41.2582   0.3306   H         1 RES1   0.0000
    52 H16     36.3216  41.1325   0.1851   H         1 RES1   0.0000
    53 H17     30.6565  44.2840  -1.1068   H         1 RES1   0.0000
    54 H18     31.3765  43.4474  -2.5214   H         1 RES1   0.0000
    55 H19     31.4043  45.0177  -4.2740   H         1 RES1   0.0000
    56 H20     29.2977  44.9347  -2.7506   H         1 RES1   0.0000
    57 H21     29.0440  44.5621  -4.9775   H         1 RES1   0.0000
    58 H22     27.8148  45.7675  -4.5550   H         1 RES1   0.0000
    59 H23     26.5668  49.3605  -4.2017   H         1 RES1   0.0000
    60 H24     27.6787  50.1108  -5.3940   H         1 RES1   0.0000
    61 H25     25.9821  50.2238  -6.8554   H         1 RES1   0.0000
    62 H26     28.9302  47.5941  -8.4423   H         1 RES1   0.0000
    63 H27     29.9383  46.2848  -7.6488   H         1 RES1   0.0000
    64 H28     30.1146  44.9918  -6.6035   H         1 RES1   0.0000
    65 H29     28.4785  45.5235  -6.9950   H         1 RES1   0.0000
    66 H30     28.3180  47.3069  -3.2447   H         1 RES1   0.0000
    67 H31     32.7848  46.4280  -0.4926   H         1 RES1   0.0000
    68 H32     31.0269  46.5524  -0.6396   H         1 RES1   0.0000
    69 H33     32.0868  47.6160  -1.6232   H         1 RES1   0.0000
    70 H34     35.8336  45.8052  -4.4944   H         1 RES1   0.0000
    71 H35     35.5917  47.5464  -4.7759   H         1 RES1   0.0000
    72 H36     35.9444  46.9722  -3.1319   H         1 RES1   0.0000
    73 ****    34.1885  41.8912   1.3832   Du        1 RES1   0.0000
    74 ****    26.6308  46.2551  -6.1494   Du        1 RES1   0.0000
    75 ****    25.5002  47.2943  -5.3484   Du        1 RES1   0.0000
    76 ****    25.2979  50.6706  -5.4911   Du        1 RES1   0.0000
    77 ****    25.0405  49.1815  -6.1099   Du        1 RES1   0.0000
    78 ****    27.6094  48.3896  -8.1128   Du        1 RES1   0.0000
    79 ****    27.7003  46.7738  -7.8943   Du        1 RES1   0.0000
    80 ****    29.8017  47.7013  -2.8684   Du        1 RES1   0.0000
    81 ****    28.8755  46.8288  -1.8450   Du        1 RES1   0.0000
@<TRIPOS>BOND
     1     1     2    1
     2     2     3    1
     3     3     4    1
     4     4     5    1
     5     5     6    1
     6     6     7    2
     7     7     8    1
     8     8     9    2
     9     9    10    1
    10    10    11   ar
    11    11    12   ar
    12    12    13   ar
    13    13    14   ar
    14    10    14   ar
    15    14    15    1
    16    15    16   ar
    17    16    17   ar
    18    17    18   ar
    19    18    19   ar
    20    19    20   ar
    21    15    20   ar
    22    11    21    1
    23    21    22    1
    24     8    22    1
    25    22    23    1
    26     5    23    1
    27    23    24    1
    28    24    25    1
    29    25    26    1
    30     4    26    1
    31    26    27    1
    32     2    27    1
    33    27    28    1
    34    28    29    2
    35    28    30    1
    36    30    31    1
    37    27    32    1
    38    26    33    1
    39    24    34    1
    40    22    35    1
    41     7    36    1
    42     1    37    1
    43     1    38    1
    44     1    39    1
    45     2    40    1
    46     3    41    1
    47     3    42    1
    48     4    43    1
    49     5    44    1
    50     6    45    1
    51     9    46    1
    52    12    47    1
    53    16    48    1
    54    17    49    1
    55    18    50    1
    56    19    51    1
    57    20    52    1
    58    21    53    1
    59    21    54    1
    60    23    55    1
    61    24    56    1
    62    25    57    1
    63    25    58    1
    64    30    59    1
    65    30    60    1
    66    31    61    1
    67    32    62    1
    68    33    63    1
    69    33    64    1
    70    33    65    1
    71    34    66    1
    72    35    67    1
    73    35    68    1
    74    35    69    1
    75    36    70    1
    76    36    71    1
    77    36    72    1
    78    13    73    1
    79    29    74    1
    80    29    75    1
    81    31    76    1
    82    31    77    1
    83    32    78    1
    84    32    79    1
    85    34    80    1
    86    34    81    1
@<TRIPOS>SUBSTRUCTURE
     1 RES1        1 GROUP             0 ****  ****    0  
@<TRIPOS>MOLECULE
39.9692
    81    86     1     0     0
SMALL
NO_CHARGES
****
Generated from the CSD

@<TRIPOS>ATOM
     1 C       27.6074  51.0234  -0.4136   C.3       1 RES1   0.0000
     2 C       28.3473  49.6649  -0.4311   C.3       1 RES1   0.0000
     3 C       29.8196  49.7722  -0.9138   C.3       1 RES1   0.0000
     4 C       30.2996  48.3219  -1.2116   C.3       1 RES1   0.0000
     5 C       31.1304  47.6698  -0.0772   C.3       1 RES1   0.0000
     6 C       32.4982  48.2920  -0.1283   C.2       1 RES1   0.0000
     7 C       33.6402  47.6041  -0.0316   C.2       1 RES1   0.0000
     8 C       33.6432  46.1409   0.1834   C.2       1 RES1   0.0000
     9 C       34.8175  45.4914   0.1607   C.2       1 RES1   0.0000
    10 C       34.8124  44.0086   0.4147   C.ar      1 RES1   0.0000
    11 C       33.6519  43.2669   0.3986   C.ar      1 RES1   0.0000
    12 C       34.0414  41.9653   0.6994   C.ar      1 RES1   0.0000
    13 N       35.3839  41.9474   0.8601   N.ar      1 RES1   0.0000
    14 N       35.8447  43.1902   0.6850   N.ar      1 RES1   0.0000
    15 C       37.1359  43.6074   0.7834   C.ar      1 RES1   0.0000
    16 C       37.4699  44.6356   1.6659   C.ar      1 RES1   0.0000
    17 C       38.7951  45.0607   1.7726   C.ar      1 RES1   0.0000
    18 C       39.7861  44.4574   0.9966   C.ar      1 RES1   0.0000
    19 C       39.4514  43.4313   0.1116   C.ar      1 RES1   0.0000
    20 C       38.1258  43.0086   0.0025   C.ar      1 RES1   0.0000
    21 C       32.3133  43.9046   0.0859   C.3       1 RES1   0.0000
    22 C       32.3295  45.4183   0.4708   C.3       1 RES1   0.0000
    23 C       31.1872  46.1336  -0.3221   C.3       1 RES1   0.0000
    24 C       29.7626  45.4988  -0.1965   C.3       1 RES1   0.0000
    25 C       28.8594  45.9803  -1.3563   C.3       1 RES1   0.0000
    26 C       28.9290  47.5518  -1.1401   C.3       1 RES1   0.0000
    27 C       27.6977  48.5496  -1.2982   C.3       1 RES1   0.0000
    28 C       26.4725  47.9239  -0.6725   C.2       1 RES1   0.0000
    29 O       25.9634  48.4314   0.3133   O.2       1 RES1   0.0000
    30 C       25.8965  46.6560  -1.2437   C.3       1 RES1   0.0000
    31 O       25.9064  45.6496  -0.2242   O.3       1 RES1   0.0000
    32 O       27.1478  49.1199  -2.5097   O.3       1 RES1   0.0000
    33 C       28.9892  47.5524  -2.7413   C.3       1 RES1   0.0000
    34 O       29.0912  45.9018   1.0025   O.3       1 RES1   0.0000
    35 C       32.2184  45.5197   2.0129   C.3       1 RES1   0.0000
    36 C       34.9428  48.3625  -0.1263   C.3       1 RES1   0.0000
    37 H1      26.5524  50.8645  -0.1463   H         1 RES1   0.0000
    38 H2      28.0737  51.6695   0.3453   H         1 RES1   0.0000
    39 H3      27.6605  51.5385  -1.3829   H         1 RES1   0.0000
    40 H4      28.4168  49.3156   0.6088   H         1 RES1   0.0000
    41 H5      29.8439  50.3553  -1.8463   H         1 RES1   0.0000
    42 H6      30.4356  50.2847  -0.1608   H         1 RES1   0.0000
    43 H7      30.9889  48.3240  -2.0738   H         1 RES1   0.0000
    44 H8      30.6595  47.8874   0.8926   H         1 RES1   0.0000
    45 H9      32.5488  49.3716  -0.2557   H         1 RES1   0.0000
    46 H10     35.7791  45.9647  -0.0222   H         1 RES1   0.0000
    47 H11     33.3811  41.1102   0.7874   H         1 RES1   0.0000
    48 H12     36.6996  45.1033   2.2689   H         1 RES1   0.0000
    49 H13     39.0547  45.8595   2.4584   H         1 RES1   0.0000
    50 H14     40.8160  44.7860   1.0812   H         1 RES1   0.0000
    51 H15     40.2212  42.9626  -0.4915   H         1 RES1   0.0000
    52 H16     37.8654  42.2149  -0.6889   H         1 RES1   0.0000
    53 H17     31.5380  43.3436   0.6273   H         1 RES1   0.0000
    54 H18     32.1575  43.7883  -0.9968   H         1 RES1   0.0000
    55 H19     31.4846  46.0116  -1.3748   H         1 RES1   0.0000
    56 H20     29.7809  44.4015  -0.2476   H         1 RES1   0.0000
    57 H21     29.2104  45.3835  -2.2155   H         1 RES1   0.0000
    58 H22     27.8323  45.6533  -1.1334   H         1 RES1   0.0000
    59 H23     24.8640  46.8003  -1.5858   H         1 RES1   0.0000
    60 H24     26.5171  46.3115  -2.0848   H         1 RES1   0.0000
    61 H25     25.1903  45.0372  -0.3512   H         1 RES1   0.0000
    62 H26     27.5084  48.7869  -3.3229   H         1 RES1   0.0000
    63 H27     29.1556  48.5317  -3.2102   H         1 RES1   0.0000
    64 H28     29.8251  46.9996  -3.2079   H         1 RES1   0.0000
    65 H29     28.0662  47.1350  -3.1837   H         1 RES1   0.0000
    66 H30     29.4117  46.7225   1.3481   H         1 RES1   0.0000
    67 H31     33.1749  45.2072   2.4579   H         1 RES1   0.0000
    68 H32     31.4420  44.8573   2.4163   H         1 RES1   0.0000
    69 H33     32.0169  46.5552   2.3218   H         1 RES1   0.0000
    70 H34     35.4802  48.0635  -1.0385   H         1 RES1   0.0000
    71 H35     34.7850  49.4502  -0.1651   H         1 RES1   0.0000
    72 H36     35.5648  48.1455   0.7550   H         1 RES1   0.0000
    73 ****    35.9374  41.1423   1.0734   Du        1 RES1   0.0000
    74 ****    26.3567  49.2619   0.7077   Du        1 RES1   0.0000
    75 ****    25.1527  48.0169   0.7269   Du        1 RES1   0.0000
    76 ****    25.8103  46.0867   0.6700   Du        1 RES1   0.0000
    77 ****    26.7737  45.1531  -0.2610   Du        1 RES1   0.0000
    78 ****    27.3072  50.1068  -2.4844   Du        1 RES1   0.0000
    79 ****    26.1639  48.9413  -2.5141   Du        1 RES1   0.0000
    80 ****    29.2217  45.1920   1.6947   Du        1 RES1   0.0000
    81 ****    28.1159  45.9988   0.8043   Du        1 RES1   0.0000
@<TRIPOS>BOND
     1     1     2    1
     2     2     3    1
     3     3     4    1
     4     4     5    1
     5     5     6    1
     6     6     7    2
     7     7     8    1
     8     8     9    2
     9     9    10    1
    10    10    11   ar
    11    11    12   ar
    12    12    13   ar
    13    13    14   ar
    14    10    14   ar
    15    14    15    1
    16    15    16   ar
    17    16    17   ar
    18    17    18   ar
    19    18    19   ar
    20    19    20   ar
    21    15    20   ar
    22    11    21    1
    23    21    22    1
    24     8    22    1
    25    22    23    1
    26     5    23    1
    27    23    24    1
    28    24    25    1
    29    25    26    1
    30     4    26    1
    31    26    27    1
    32     2    27    1
    33    27    28    1
    34    28    29    2
    35    28    30    1
    36    30    31    1
    37    27    32    1
    38    26    33    1
    39    24    34    1
    40    22    35    1
    41     7    36    1
    42     1    37    1
    43     1    38    1
    44     1    39    1
    45     2    40    1
    46     3    41    1
    47     3    42    1
    48     4    43    1
    49     5    44    1
    50     6    45    1
    51     9    46    1
    52    12    47    1
    53    16    48    1
    54    17    49    1
    55    18    50    1
    56    19    51    1
    57    20    52    1
    58    21    53    1
    59    21    54    1
    60    23    55    1
    61    24    56    1
    62    25    57    1
    63    25    58    1
    64    30    59    1
    65    30    60    1
    66    31    61    1
    67    32    62    1
    68    33    63    1
    69    33    64    1
    70    33    65    1
    71    34    66    1
    72    35    67    1
    73    35    68    1
    74    35    69    1
    75    36    70    1
    76    36    71    1
    77    36    72    1
    78    13    73    1
    79    29    74    1
    80    29    75    1
    81    31    76    1
    82    31    77    1
    83    32    78    1
    84    32    79    1
    85    34    80    1
    86    34    81    1
@<TRIPOS>SUBSTRUCTURE
     1 RES1        1 GROUP             0 ****  ****    0  
@<TRIPOS>MOLECULE
39.263
    81    86     1     0     0
SMALL
NO_CHARGES
****
Generated from the CSD

@<TRIPOS>ATOM
     1 C       26.5212  49.1129  -2.0020   C.3       1 RES1   0.0000
     2 C       27.5055  47.9195  -1.9817   C.3       1 RES1   0.0000
     3 C       28.9670  48.3214  -2.3207   C.3       1 RES1   0.0000
     4 C       29.7394  47.0008  -2.6060   C.3       1 RES1   0.0000
     5 C       30.5762  46.4705  -1.4139   C.3       1 RES1   0.0000
     6 C       31.7990  47.3404  -1.3210   C.2       1 RES1   0.0000
     7 C       33.0384  46.8760  -1.1333   C.2       1 RES1   0.0000
     8 C       33.3018  45.4319  -0.9535   C.2       1 RES1   0.0000
     9 C       34.5759  45.0163  -0.8806   C.2       1 RES1   0.0000
    10 C       34.8318  43.5498  -0.6632   C.ar      1 RES1   0.0000
    11 C       33.8403  42.6044  -0.8063   C.ar      1 RES1   0.0000
    12 C       34.4432  41.3881  -0.5007   C.ar      1 RES1   0.0000
    13 N       35.7449  41.6163  -0.2146   N.ar      1 RES1   0.0000
    14 N       35.9735  42.9297  -0.3161   N.ar      1 RES1   0.0000
    15 C       37.1473  43.5778  -0.0865   C.ar      1 RES1   0.0000
    16 C       37.9005  44.0553  -1.1600   C.ar      1 RES1   0.0000
    17 C       39.1021  44.7258  -0.9260   C.ar      1 RES1   0.0000
    18 C       39.5503  44.9189   0.3817   C.ar      1 RES1   0.0000
    19 C       38.7986  44.4384   1.4552   C.ar      1 RES1   0.0000
    20 C       37.5989  43.7650   1.2209   C.ar      1 RES1   0.0000
    21 C       32.4374  42.9913  -1.2287   C.3       1 RES1   0.0000
    22 C       32.1302  44.4640  -0.8084   C.3       1 RES1   0.0000
    23 C       30.9467  44.9837  -1.6885   C.3       1 RES1   0.0000
    24 C       29.6642  44.0878  -1.7128   C.3       1 RES1   0.0000
    25 C       28.7914  44.4381  -2.9410   C.3       1 RES1   0.0000
    26 C       28.5403  45.9844  -2.6822   C.3       1 RES1   0.0000
    27 C       27.1599  46.7385  -2.9322   C.3       1 RES1   0.0000
    28 C       26.0265  45.8685  -2.4398   C.2       1 RES1   0.0000
    29 O       25.5040  46.0984  -1.3615   O.2       1 RES1   0.0000
    30 C       25.5608  44.6973  -3.2626   C.3       1 RES1   0.0000
    31 O       25.7607  43.4980  -2.5049   O.3       1 RES1   0.0000
    32 O       26.6201  47.2446  -4.1764   O.3       1 RES1   0.0000
    33 C       28.7402  46.0621  -4.2702   C.3       1 RES1   0.0000
    34 O       28.8252  44.3078  -0.5734   O.3       1 RES1   0.0000
    35 C       31.8663  44.4793   0.7183   C.3       1 RES1   0.0000
    36 C       34.1753  47.8691  -1.0868   C.3       1 RES1   0.0000
    37 H1      25.4965  48.7476  -1.8392   H         1 RES1   0.0000
    38 H2      26.7867  49.8033  -1.1875   H         1 RES1   0.0000
    39 H3      26.5602  49.6680  -2.9496   H         1 RES1   0.0000
    40 H4      27.5485  47.5471  -0.9484   H         1 RES1   0.0000
    41 H5      28.9615  48.9365  -3.2327   H         1 RES1   0.0000
    42 H6      29.4049  48.9093  -1.5010   H         1 RES1   0.0000
    43 H7      30.4889  47.1678  -3.3989   H         1 RES1   0.0000
    44 H8      29.9888  46.5557  -0.4879   H         1 RES1   0.0000
    45 H9      31.6536  48.4144  -1.4177   H         1 RES1   0.0000
    46 H10     35.4417  45.6690  -0.9608   H         1 RES1   0.0000
    47 H11     33.9532  40.4212  -0.4956   H         1 RES1   0.0000
    48 H12     37.5513  43.9056  -2.1756   H         1 RES1   0.0000
    49 H13     39.6872  45.0969  -1.7600   H         1 RES1   0.0000
    50 H14     40.4825  45.4419   0.5637   H         1 RES1   0.0000
    51 H15     39.1467  44.5881   2.4712   H         1 RES1   0.0000
    52 H16     37.0177  43.3875   2.0549   H         1 RES1   0.0000
    53 H17     31.7389  42.2729  -0.7762   H         1 RES1   0.0000
    54 H18     32.4028  42.8924  -2.3238   H         1 RES1   0.0000
    55 H19     31.3536  44.9631  -2.7110   H         1 RES1   0.0000
    56 H20     29.8962  43.0166  -1.7878   H         1 RES1   0.0000
    57 H21     29.3243  43.9537  -3.7770   H         1 RES1   0.0000
    58 H22     27.8302  43.9149  -2.8238   H         1 RES1   0.0000
    59 H23     24.4965  44.7801  -3.5162   H         1 RES1   0.0000
    60 H24     26.1544  44.6329  -4.1872   H         1 RES1   0.0000
    61 H25     24.9330  43.1720  -2.1695   H         1 RES1   0.0000
    62 H26     27.1215  47.0401  -4.9569   H         1 RES1   0.0000
    63 H27     28.7572  47.0736  -4.6980   H         1 RES1   0.0000
    64 H28     29.7041  45.6959  -4.6687   H         1 RES1   0.0000
    65 H29     27.9565  45.4971  -4.8074   H         1 RES1   0.0000
    66 H30     29.2610  44.1283   0.2473   H         1 RES1   0.0000
    67 H31     32.8219  44.3342   1.2440   H         1 RES1   0.0000
    68 H32     31.1983  43.6668   1.0309   H         1 RES1   0.0000
    69 H33     31.4443  45.4449   1.0311   H         1 RES1   0.0000
    70 H34     34.8382  47.7141  -1.9510   H         1 RES1   0.0000
    71 H35     33.8167  48.9084  -1.1146   H         1 RES1   0.0000
    72 H36     34.7471  47.7368  -0.1561   H         1 RES1   0.0000
    73 ****    36.4210  40.9215   0.0309   Du        1 RES1   0.0000
    74 ****    25.8258  46.8630  -0.8029   Du        1 RES1   0.0000
    75 ****    24.7541  45.5224  -1.0362   Du        1 RES1   0.0000
    76 ****    26.3725  43.6921  -1.7380   Du        1 RES1   0.0000
    77 ****    26.1737  42.8027  -3.0931   Du        1 RES1   0.0000
    78 ****    26.5593  48.2400  -4.1025   Du        1 RES1   0.0000
    79 ****    25.7033  46.8622  -4.2914   Du        1 RES1   0.0000
    80 ****    28.0257  43.7117  -0.6466   Du        1 RES1   0.0000
    81 ****    28.5299  45.2632  -0.5749   Du        1 RES1   0.0000
@<TRIPOS>BOND
     1     1     2    1
     2     2     3    1
     3     3     4    1
     4     4     5    1
     5     5     6    1
     6     6     7    2
     7     7     8    1
     8     8     9    2
     9     9    10    1
    10    10    11   ar
    11    11    12   ar
    12    12    13   ar
    13    13    14   ar
    14    10    14   ar
    15    14    15    1
    16    15    16   ar
    17    16    17   ar
    18    17    18   ar
    19    18    19   ar
    20    19    20   ar
    21    15    20   ar
    22    11    21    1
    23    21    22    1
    24     8    22    1
    25    22    23    1
    26     5    23    1
    27    23    24    1
    28    24    25    1
    29    25    26    1
    30     4    26    1
    31    26    27    1
    32     2    27    1
    33    27    28    1
    34    28    29    2
    35    28    30    1
    36    30    31    1
    37    27    32    1
    38    26    33    1
    39    24    34    1
    40    22    35    1
    41     7    36    1
    42     1    37    1
    43     1    38    1
    44     1    39    1
    45     2    40    1
    46     3    41    1
    47     3    42    1
    48     4    43    1
    49     5    44    1
    50     6    45    1
    51     9    46    1
    52    12    47    1
    53    16    48    1
    54    17    49    1
    55    18    50    1
    56    19    51    1
    57    20    52    1
    58    21    53    1
    59    21    54    1
    60    23    55    1
    61    24    56    1
    62    25    57    1
    63    25    58    1
    64    30    59    1
    65    30    60    1
    66    31    61    1
    67    32    62    1
    68    33    63    1
    69    33    64    1
    70    33    65    1
    71    34    66    1
    72    35    67    1
    73    35    68    1
    74    35    69    1
    75    36    70    1
    76    36    71    1
    77    36    72    1
    78    13    73    1
    79    29    74    1
    80    29    75    1
    81    31    76    1
    82    31    77    1
    83    32    78    1
    84    32    79    1
    85    34    80    1
    86    34    81    1
@<TRIPOS>SUBSTRUCTURE
     1 RES1        1 GROUP             0 ****  ****    0  
@<TRIPOS>MOLECULE
38.7939
    81    86     1     0     0
SMALL
NO_CHARGES
****
Generated from the CSD

@<TRIPOS>ATOM
     1 C       32.8720  42.3968   0.1253   C.3       1 RES1   0.0000
     2 C       34.1766  43.2148   0.2745   C.3       1 RES1   0.0000
     3 C       33.9346  44.6844   0.7149   C.3       1 RES1   0.0000
     4 C       35.2691  45.4486   0.4759   C.3       1 RES1   0.0000
     5 C       36.1478  45.6266   1.7403   C.3       1 RES1   0.0000
     6 C       35.5052  46.7056   2.5670   C.2       1 RES1   0.0000
     7 C       36.1758  47.7027   3.1526   C.2       1 RES1   0.0000
     8 C       37.6490  47.7972   3.0649   C.2       1 RES1   0.0000
     9 C       38.2542  48.8796   3.5782   C.2       1 RES1   0.0000
    10 C       39.7557  48.9493   3.5143   C.ar      1 RES1   0.0000
    11 C       40.4955  48.0959   2.7258   C.ar      1 RES1   0.0000
    12 C       41.8239  48.4437   2.9508   C.ar      1 RES1   0.0000
    13 N       41.8532  49.4789   3.8202   N.ar      1 RES1   0.0000
    14 N       40.5949  49.7807   4.1569   N.ar      1 RES1   0.0000
    15 C       40.1875  50.7448   5.0259   C.ar      1 RES1   0.0000
    16 C       40.7899  50.8513   6.2801   C.ar      1 RES1   0.0000
    17 C       40.3772  51.8438   7.1705   C.ar      1 RES1   0.0000
    18 C       39.3620  52.7298   6.8064   C.ar      1 RES1   0.0000
    19 C       38.7573  52.6212   5.5531   C.ar      1 RES1   0.0000
    20 C       39.1676  51.6266   4.6642   C.ar      1 RES1   0.0000
    21 C       39.8281  47.0575   1.8468   C.3       1 RES1   0.0000
    22 C       38.4424  46.6512   2.4423   C.3       1 RES1   0.0000
    23 C       37.5861  46.0221   1.2950   C.3       1 RES1   0.0000
    24 C       38.2590  44.8578   0.4953   C.3       1 RES1   0.0000
    25 C       37.5420  44.6571  -0.8606   C.3       1 RES1   0.0000
    26 C       36.0605  44.3773  -0.3624   C.3       1 RES1   0.0000
    27 C       35.0760  43.2948  -0.9914   C.3       1 RES1   0.0000
    28 C       35.8507  42.0280  -1.2724   C.2       1 RES1   0.0000
    29 O       36.7222  42.0217  -2.1264   O.2       1 RES1   0.0000
    30 C       35.5280  40.7632  -0.5230   C.3       1 RES1   0.0000
    31 O       36.5910  40.4942   0.3989   O.3       1 RES1   0.0000
    32 O       34.2541  43.4036  -2.1779   O.3       1 RES1   0.0000
    33 C       35.6927  45.2834  -1.6318   C.3       1 RES1   0.0000
    34 O       38.1533  43.6005   1.1725   O.3       1 RES1   0.0000
    35 C       38.6983  45.7199   3.6538   C.3       1 RES1   0.0000
    36 C       35.3917  48.7314   3.9324   C.3       1 RES1   0.0000
    37 H1      33.1073  41.3974  -0.2690   H         1 RES1   0.0000
    38 H2      32.4081  42.2883   1.1171   H         1 RES1   0.0000
    39 H3      32.1481  42.8865  -0.5411   H         1 RES1   0.0000
    40 H4      34.7530  42.7662   1.0960   H         1 RES1   0.0000
    41 H5      33.1533  45.1207   0.0749   H         1 RES1   0.0000
    42 H6      33.5964  44.7227   1.7605   H         1 RES1   0.0000
    43 H7      35.0572  46.4835   0.1558   H         1 RES1   0.0000
    44 H8      36.1665  44.6850   2.3084   H         1 RES1   0.0000
    45 H9      34.4244  46.6632   2.6863   H         1 RES1   0.0000
    46 H10     37.7340  49.7117   4.0463   H         1 RES1   0.0000
    47 H11     42.6885  47.9674   2.5031   H         1 RES1   0.0000
    48 H12     41.5790  50.1631   6.5621   H         1 RES1   0.0000
    49 H13     40.8454  51.9267   8.1451   H         1 RES1   0.0000
    50 H14     39.0431  53.5024   7.4971   H         1 RES1   0.0000
    51 H15     37.9684  53.3093   5.2701   H         1 RES1   0.0000
    52 H16     38.6940  51.5393   3.6926   H         1 RES1   0.0000
    53 H17     40.5122  46.2014   1.7575   H         1 RES1   0.0000
    54 H18     39.6966  47.5230   0.8588   H         1 RES1   0.0000
    55 H19     37.4587  46.8500   0.5809   H         1 RES1   0.0000
    56 H20     39.3150  45.0555   0.2657   H         1 RES1   0.0000
    57 H21     37.9199  45.4933  -1.4734   H         1 RES1   0.0000
    58 H22     37.9302  43.7285  -1.3059   H         1 RES1   0.0000
    59 H23     34.5899  40.8552   0.0386   H         1 RES1   0.0000
    60 H24     35.4524  39.9219  -1.2286   H         1 RES1   0.0000
    61 H25     37.3946  40.2908  -0.0667   H         1 RES1   0.0000
    62 H26     33.4511  43.9013  -2.0791   H         1 RES1   0.0000
    63 H27     34.6293  45.5342  -1.7444   H         1 RES1   0.0000
    64 H28     36.1086  46.3075  -1.6493   H         1 RES1   0.0000
    65 H29     36.0149  44.8098  -2.5772   H         1 RES1   0.0000
    66 H30     38.9547  43.0978   1.1468   H         1 RES1   0.0000
    67 H31     39.0865  46.3232   4.4881   H         1 RES1   0.0000
    68 H32     39.4497  44.9511   3.4333   H         1 RES1   0.0000
    69 H33     37.7648  45.2404   3.9808   H         1 RES1   0.0000
    70 H34     35.4643  49.7091   3.4332   H         1 RES1   0.0000
    71 H35     34.3271  48.4668   4.0101   H         1 RES1   0.0000
    72 H36     35.7930  48.8092   4.9539   H         1 RES1   0.0000
    73 ****    42.6753  49.9399   4.1543   Du        1 RES1   0.0000
    74 ****    36.9241  42.8552  -2.6408   Du        1 RES1   0.0000
    75 ****    37.2344  41.1832  -2.3119   Du        1 RES1   0.0000
    76 ****    36.3384  39.7159   0.9738   Du        1 RES1   0.0000
    77 ****    36.7390  41.2990   0.9737   Du        1 RES1   0.0000
    78 ****    34.0083  42.4784  -2.4671   Du        1 RES1   0.0000
    79 ****    34.8011  43.8415  -2.8914   Du        1 RES1   0.0000
    80 ****    37.4277  43.0655   0.7397   Du        1 RES1   0.0000
    81 ****    37.9156  43.7725   2.1285   Du        1 RES1   0.0000
@<TRIPOS>BOND
     1     1     2    1
     2     2     3    1
     3     3     4    1
     4     4     5    1
     5     5     6    1
     6     6     7    2
     7     7     8    1
     8     8     9    2
     9     9    10    1
    10    10    11   ar
    11    11    12   ar
    12    12    13   ar
    13    13    14   ar
    14    10    14   ar
    15    14    15    1
    16    15    16   ar
    17    16    17   ar
    18    17    18   ar
    19    18    19   ar
    20    19    20   ar
    21    15    20   ar
    22    11    21    1
    23    21    22    1
    24     8    22    1
    25    22    23    1
    26     5    23    1
    27    23    24    1
    28    24    25    1
    29    25    26    1
    30     4    26    1
    31    26    27    1
    32     2    27    1
    33    27    28    1
    34    28    29    2
    35    28    30    1
    36    30    31    1
    37    27    32    1
    38    26    33    1
    39    24    34    1
    40    22    35    1
    41     7    36    1
    42     1    37    1
    43     1    38    1
    44     1    39    1
    45     2    40    1
    46     3    41    1
    47     3    42    1
    48     4    43    1
    49     5    44    1
    50     6    45    1
    51     9    46    1
    52    12    47    1
    53    16    48    1
    54    17    49    1
    55    18    50    1
    56    19    51    1
    57    20    52    1
    58    21    53    1
    59    21    54    1
    60    23    55    1
    61    24    56    1
    62    25    57    1
    63    25    58    1
    64    30    59    1
    65    30    60    1
    66    31    61    1
    67    32    62    1
    68    33    63    1
    69    33    64    1
    70    33    65    1
    71    34    66    1
    72    35    67    1
    73    35    68    1
    74    35    69    1
    75    36    70    1
    76    36    71    1
    77    36    72    1
    78    13    73    1
    79    29    74    1
    80    29    75    1
    81    31    76    1
    82    31    77    1
    83    32    78    1
    84    32    79    1
    85    34    80    1
    86    34    81    1
@<TRIPOS>SUBSTRUCTURE
     1 RES1        1 GROUP             0 ****  ****    0  
@<TRIPOS>MOLECULE
36.2013
    81    86     1     0     0
SMALL
NO_CHARGES
****
Generated from the CSD

@<TRIPOS>ATOM
     1 C       27.7468  50.3781   2.2796   C.3       1 RES1   0.0000
     2 C       28.9786  49.7009   2.9256   C.3       1 RES1   0.0000
     3 C       29.5796  48.5610   2.0585   C.3       1 RES1   0.0000
     4 C       30.5532  47.7663   2.9765   C.3       1 RES1   0.0000
     5 C       32.0476  48.1450   2.8158   C.3       1 RES1   0.0000
     6 C       32.5168  47.5241   1.5294   C.2       1 RES1   0.0000
     7 C       33.6753  46.8722   1.3889   C.2       1 RES1   0.0000
     8 C       34.6308  46.7475   2.5108   C.2       1 RES1   0.0000
     9 C       35.7242  45.9877   2.3410   C.2       1 RES1   0.0000
    10 C       36.7067  45.8956   3.4765   C.ar      1 RES1   0.0000
    11 C       36.3997  46.3289   4.7474   C.ar      1 RES1   0.0000
    12 C       37.5492  46.1091   5.5001   C.ar      1 RES1   0.0000
    13 N       38.4823  45.5450   4.7004   N.ar      1 RES1   0.0000
    14 N       37.9637  45.4178   3.4746   N.ar      1 RES1   0.0000
    15 C       38.5821  44.9183   2.3705   C.ar      1 RES1   0.0000
    16 C       39.9143  45.2435   2.1117   C.ar      1 RES1   0.0000
    17 C       40.5520  44.7271   0.9826   C.ar      1 RES1   0.0000
    18 C       39.8573  43.8853   0.1126   C.ar      1 RES1   0.0000
    19 C       38.5238  43.5627   0.3698   C.ar      1 RES1   0.0000
    20 C       37.8853  44.0819   1.4969   C.ar      1 RES1   0.0000
    21 C       35.0327  46.8925   5.0792   C.3       1 RES1   0.0000
    22 C       34.3784  47.5161   3.8054   C.3       1 RES1   0.0000
    23 C       32.8346  47.5953   4.0412   C.3       1 RES1   0.0000
    24 C       32.3768  48.3049   5.3584   C.3       1 RES1   0.0000
    25 C       30.9216  47.9074   5.7010   C.3       1 RES1   0.0000
    26 C       30.1780  48.3753   4.3784   C.3       1 RES1   0.0000
    27 C       28.7533  49.0861   4.3359   C.3       1 RES1   0.0000
    28 C       28.6800  50.1101   5.4450   C.2       1 RES1   0.0000
    29 O       28.7183  51.3006   5.1806   O.2       1 RES1   0.0000
    30 C       28.5920  49.6645   6.8800   C.3       1 RES1   0.0000
    31 O       29.7540  50.1315   7.5757   O.3       1 RES1   0.0000
    32 O       27.4402  48.4814   4.4096   O.3       1 RES1   0.0000
    33 C       29.3657  47.0139   4.6114   C.3       1 RES1   0.0000
    34 O       32.3627  49.7313   5.2312   O.3       1 RES1   0.0000
    35 C       35.0691  48.8758   3.5313   C.3       1 RES1   0.0000
    36 C       34.0025  46.2768   0.0401   C.3       1 RES1   0.0000
    37 H1      27.3215  51.1126   2.9792   H         1 RES1   0.0000
    38 H2      28.0696  50.9009   1.3669   H         1 RES1   0.0000
    39 H3      26.9700  49.6514   2.0030   H         1 RES1   0.0000
    40 H4      29.7741  50.4569   2.9871   H         1 RES1   0.0000
    41 H5      28.7653  47.8940   1.7386   H         1 RES1   0.0000
    42 H6      30.0692  48.9740   1.1647   H         1 RES1   0.0000
    43 H7      30.5246  46.6942   2.7155   H         1 RES1   0.0000
    44 H8      32.1435  49.2391   2.7566   H         1 RES1   0.0000
    45 H9      31.8612  47.6147   0.6656   H         1 RES1   0.0000
    46 H10     35.9555  45.4364   1.4329   H         1 RES1   0.0000
    47 H11     37.6746  46.3471   6.5502   H         1 RES1   0.0000
    48 H12     40.4535  45.8970   2.7884   H         1 RES1   0.0000
    49 H13     41.5872  44.9796   0.7815   H         1 RES1   0.0000
    50 H14     40.3534  43.4821  -0.7633   H         1 RES1   0.0000
    51 H15     37.9839  42.9089  -0.3062   H         1 RES1   0.0000
    52 H16     36.8479  43.8351   1.6936   H         1 RES1   0.0000
    53 H17     35.1581  47.6273   5.8874   H         1 RES1   0.0000
    54 H18     34.4278  46.0494   5.4444   H         1 RES1   0.0000
    55 H19     32.5317  46.5417   4.1403   H         1 RES1   0.0000
    56 H20     32.9907  48.0267   6.2259   H         1 RES1   0.0000
    57 H21     31.0273  46.8891   6.1124   H         1 RES1   0.0000
    58 H22     30.5867  48.5560   6.5248   H         1 RES1   0.0000
    59 H23     27.6997  50.0688   7.3741   H         1 RES1   0.0000
    60 H24     28.5713  48.5650   6.9274   H         1 RES1   0.0000
    61 H25     30.5285  50.0421   7.0316   H         1 RES1   0.0000
    62 H26     27.4046  47.6203   4.8090   H         1 RES1   0.0000
    63 H27     28.6588  46.7403   3.8164   H         1 RES1   0.0000
    64 H28     29.9568  46.0801   4.6378   H         1 RES1   0.0000
    65 H29     28.7946  47.0372   5.5575   H         1 RES1   0.0000
    66 H30     33.0627  50.1523   5.7092   H         1 RES1   0.0000
    67 H31     36.0812  48.6867   3.1435   H         1 RES1   0.0000
    68 H32     35.1788  49.4756   4.4436   H         1 RES1   0.0000
    69 H33     34.5130  49.4502   2.7768   H         1 RES1   0.0000
    70 H34     34.0254  45.1794   0.1153   H         1 RES1   0.0000
    71 H35     33.2594  46.5505  -0.7229   H         1 RES1   0.0000
    72 H36     34.9827  46.6428  -0.3004   H         1 RES1   0.0000
    73 ****    39.4028  45.2701   4.9782   Du        1 RES1   0.0000
    74 ****    28.7983  51.5993   4.2296   Du        1 RES1   0.0000
    75 ****    28.6697  51.9777   5.9149   Du        1 RES1   0.0000
    76 ****    29.8751  49.5945   8.4106   Du        1 RES1   0.0000
    77 ****    29.6293  51.0947   7.8140   Du        1 RES1   0.0000
    78 ****    27.0856  48.4027   3.4779   Du        1 RES1   0.0000
    79 ****    26.8509  49.0906   4.9402   Du        1 RES1   0.0000
    80 ****    31.4894  50.0735   5.5779   Du        1 RES1   0.0000
    81 ****    32.4520  49.9657   4.2632   Du        1 RES1   0.0000
@<TRIPOS>BOND
     1     1     2    1
     2     2     3    1
     3     3     4    1
     4     4     5    1
     5     5     6    1
     6     6     7    2
     7     7     8    1
     8     8     9    2
     9     9    10    1
    10    10    11   ar
    11    11    12   ar
    12    12    13   ar
    13    13    14   ar
    14    10    14   ar
    15    14    15    1
    16    15    16   ar
    17    16    17   ar
    18    17    18   ar
    19    18    19   ar
    20    19    20   ar
    21    15    20   ar
    22    11    21    1
    23    21    22    1
    24     8    22    1
    25    22    23    1
    26     5    23    1
    27    23    24    1
    28    24    25    1
    29    25    26    1
    30     4    26    1
    31    26    27    1
    32     2    27    1
    33    27    28    1
    34    28    29    2
    35    28    30    1
    36    30    31    1
    37    27    32    1
    38    26    33    1
    39    24    34    1
    40    22    35    1
    41     7    36    1
    42     1    37    1
    43     1    38    1
    44     1    39    1
    45     2    40    1
    46     3    41    1
    47     3    42    1
    48     4    43    1
    49     5    44    1
    50     6    45    1
    51     9    46    1
    52    12    47    1
    53    16    48    1
    54    17    49    1
    55    18    50    1
    56    19    51    1
    57    20    52    1
    58    21    53    1
    59    21    54    1
    60    23    55    1
    61    24    56    1
    62    25    57    1
    63    25    58    1
    64    30    59    1
    65    30    60    1
    66    31    61    1
    67    32    62    1
    68    33    63    1
    69    33    64    1
    70    33    65    1
    71    34    66    1
    72    35    67    1
    73    35    68    1
    74    35    69    1
    75    36    70    1
    76    36    71    1
    77    36    72    1
    78    13    73    1
    79    29    74    1
    80    29    75    1
    81    31    76    1
    82    31    77    1
    83    32    78    1
    84    32    79    1
    85    34    80    1
    86    34    81    1
@<TRIPOS>SUBSTRUCTURE
     1 RES1        1 GROUP             0 ****  ****    0  
@<TRIPOS>MOLECULE
35.6389
    81    86     1     0     0
SMALL
NO_CHARGES
****
Generated from the CSD

@<TRIPOS>ATOM
     1 C       36.8534  50.5487  11.0555   C.3       1 RES1   0.0000
     2 C       36.4403  50.3096   9.5839   C.3       1 RES1   0.0000
     3 C       37.4891  49.4990   8.7743   C.3       1 RES1   0.0000
     4 C       37.1094  49.6503   7.2726   C.3       1 RES1   0.0000
     5 C       36.3116  48.4589   6.6839   C.3       1 RES1   0.0000
     6 C       37.2934  47.3394   6.4764   C.2       1 RES1   0.0000
     7 C       37.3472  46.5819   5.3763   C.2       1 RES1   0.0000
     8 C       36.3876  46.7655   4.2661   C.2       1 RES1   0.0000
     9 C       36.5613  46.0512   3.1431   C.2       1 RES1   0.0000
    10 C       35.5596  46.2203   2.0334   C.ar      1 RES1   0.0000
    11 C       34.6505  47.2549   2.0190   C.ar      1 RES1   0.0000
    12 C       33.8895  47.0617   0.8702   C.ar      1 RES1   0.0000
    13 N       34.3565  45.9676   0.2273   N.ar      1 RES1   0.0000
    14 N       35.3701  45.4631   0.9384   N.ar      1 RES1   0.0000
    15 C       36.0992  44.3509   0.6517   C.ar      1 RES1   0.0000
    16 C       37.4929  44.3990   0.7052   C.ar      1 RES1   0.0000
    17 C       38.2422  43.2572   0.4173   C.ar      1 RES1   0.0000
    18 C       37.5975  42.0671   0.0760   C.ar      1 RES1   0.0000
    19 C       36.2036  42.0199   0.0193   C.ar      1 RES1   0.0000
    20 C       35.4547  43.1626   0.3038   C.ar      1 RES1   0.0000
    21 C       34.6353  48.3061   3.1104   C.3       1 RES1   0.0000
    22 C       35.2068  47.7174   4.4396   C.3       1 RES1   0.0000
    23 C       35.6607  48.9098   5.3436   C.3       1 RES1   0.0000
    24 C       34.5942  50.0271   5.5931   C.3       1 RES1   0.0000
    25 C       35.2837  51.3258   6.0733   C.3       1 RES1   0.0000
    26 C       36.0300  50.7916   7.3690   C.3       1 RES1   0.0000
    27 C       36.1517  51.5860   8.7441   C.3       1 RES1   0.0000
    28 C       34.8240  52.2367   9.0568   C.2       1 RES1   0.0000
    29 O       34.4993  53.2661   8.4879   O.2       1 RES1   0.0000
    30 C       33.9135  51.6352  10.0934   C.3       1 RES1   0.0000
    31 O       32.6515  51.3454   9.4804   O.3       1 RES1   0.0000
    32 O       37.0824  52.6357   9.1009   O.3       1 RES1   0.0000
    33 C       37.1901  51.7606   6.8372   C.3       1 RES1   0.0000
    34 O       33.6730  49.6776   6.6323   O.3       1 RES1   0.0000
    35 C       34.1225  46.8011   5.0607   C.3       1 RES1   0.0000
    36 C       38.4066  45.5084   5.2976   C.3       1 RES1   0.0000
    37 H1      36.1122  51.1974  11.5450   H         1 RES1   0.0000
    38 H2      36.8785  49.5801  11.5768   H         1 RES1   0.0000
    39 H3      37.8475  51.0098  11.1387   H         1 RES1   0.0000
    40 H4      35.5419  49.6764   9.5939   H         1 RES1   0.0000
    41 H5      38.4820  49.9431   8.9385   H         1 RES1   0.0000
    42 H6      37.5105  48.4523   9.1108   H         1 RES1   0.0000
    43 H7      38.0240  49.6842   6.6555   H         1 RES1   0.0000
    44 H8      35.5383  48.1465   7.4009   H         1 RES1   0.0000
    45 H9      38.0026  47.1451   7.2786   H         1 RES1   0.0000
    46 H10     37.3754  45.3493   2.9800   H         1 RES1   0.0000
    47 H11     33.0640  47.6841   0.5444   H         1 RES1   0.0000
    48 H12     37.9929  45.3237   0.9712   H         1 RES1   0.0000
    49 H13     39.3250  43.2945   0.4591   H         1 RES1   0.0000
    50 H14     38.1795  41.1794  -0.1453   H         1 RES1   0.0000
    51 H15     35.7027  41.0955  -0.2461   H         1 RES1   0.0000
    52 H16     34.3720  43.1268   0.2547   H         1 RES1   0.0000
    53 H17     33.6010  48.6620   3.2213   H         1 RES1   0.0000
    54 H18     35.2688  49.1327   2.7564   H         1 RES1   0.0000
    55 H19     36.4692  49.3824   4.7652   H         1 RES1   0.0000
    56 H20     34.0318  50.2872   4.6859   H         1 RES1   0.0000
    57 H21     35.7164  51.7406   5.1468   H         1 RES1   0.0000
    58 H22     34.4934  52.0188   6.3997   H         1 RES1   0.0000
    59 H23     34.3275  50.7054  10.5033   H         1 RES1   0.0000
    60 H24     33.7515  52.3559  10.9093   H         1 RES1   0.0000
    61 H25     32.6881  50.5180   9.0136   H         1 RES1   0.0000
    62 H26     37.2536  52.7369  10.0297   H         1 RES1   0.0000
    63 H27     38.1364  51.7185   7.3932   H         1 RES1   0.0000
    64 H28     37.5825  51.5573   5.8239   H         1 RES1   0.0000
    65 H29     36.8664  52.8175   6.8298   H         1 RES1   0.0000
    66 H30     33.6921  48.7566   6.8494   H         1 RES1   0.0000
    67 H31     34.0557  45.8783   4.4653   H         1 RES1   0.0000
    68 H32     33.1293  47.2676   5.0473   H         1 RES1   0.0000
    69 H33     34.3876  46.5273   6.0917   H         1 RES1   0.0000
    70 H34     39.1233  45.7530   4.4996   H         1 RES1   0.0000
    71 H35     38.9658  45.4108   6.2395   H         1 RES1   0.0000
    72 H36     37.9365  44.5366   5.0848   H         1 RES1   0.0000
    73 ****    34.0040  45.5989  -0.6329   Du        1 RES1   0.0000
    74 ****    35.1118  53.6797   7.8142   Du        1 RES1   0.0000
    75 ****    33.6206  53.6962   8.6952   Du        1 RES1   0.0000
    76 ****    32.4233  52.0760   8.8369   Du        1 RES1   0.0000
    77 ****    31.9469  51.2925  10.1881   Du        1 RES1   0.0000
    78 ****    36.7147  53.5010   8.7603   Du        1 RES1   0.0000
    79 ****    37.9525  52.4419   8.6476   Du        1 RES1   0.0000
    80 ****    32.7491  49.9151   6.3323   Du        1 RES1   0.0000
    81 ****    33.9028  50.2028   7.4517   Du        1 RES1   0.0000
@<TRIPOS>BOND
     1     1     2    1
     2     2     3    1
     3     3     4    1
     4     4     5    1
     5     5     6    1
     6     6     7    2
     7     7     8    1
     8     8     9    2
     9     9    10    1
    10    10    11   ar
    11    11    12   ar
    12    12    13   ar
    13    13    14   ar
    14    10    14   ar
    15    14    15    1
    16    15    16   ar
    17    16    17   ar
    18    17    18   ar
    19    18    19   ar
    20    19    20   ar
    21    15    20   ar
    22    11    21    1
    23    21    22    1
    24     8    22    1
    25    22    23    1
    26     5    23    1
    27    23    24    1
    28    24    25    1
    29    25    26    1
    30     4    26    1
    31    26    27    1
    32     2    27    1
    33    27    28    1
    34    28    29    2
    35    28    30    1
    36    30    31    1
    37    27    32    1
    38    26    33    1
    39    24    34    1
    40    22    35    1
    41     7    36    1
    42     1    37    1
    43     1    38    1
    44     1    39    1
    45     2    40    1
    46     3    41    1
    47     3    42    1
    48     4    43    1
    49     5    44    1
    50     6    45    1
    51     9    46    1
    52    12    47    1
    53    16    48    1
    54    17    49    1
    55    18    50    1
    56    19    51    1
    57    20    52    1
    58    21    53    1
    59    21    54    1
    60    23    55    1
    61    24    56    1
    62    25    57    1
    63    25    58    1
    64    30    59    1
    65    30    60    1
    66    31    61    1
    67    32    62    1
    68    33    63    1
    69    33    64    1
    70    33    65    1
    71    34    66    1
    72    35    67    1
    73    35    68    1
    74    35    69    1
    75    36    70    1
    76    36    71    1
    77    36    72    1
    78    13    73    1
    79    29    74    1
    80    29    75    1
    81    31    76    1
    82    31    77    1
    83    32    78    1
    84    32    79    1
    85    34    80    1
    86    34    81    1
@<TRIPOS>SUBSTRUCTURE
     1 RES1        1 GROUP             0 ****  ****    0  
@<TRIPOS>MOLECULE
34.5521
    81    86     1     0     0
SMALL
NO_CHARGES
****
Generated from the CSD

@<TRIPOS>ATOM
     1 C       24.5661  49.1522   3.6267   C.3       1 RES1   0.0000
     2 C       25.5024  48.6799   2.4894   C.3       1 RES1   0.0000
     3 C       26.9825  48.5261   2.9347   C.3       1 RES1   0.0000
     4 C       27.8299  48.4007   1.6353   C.3       1 RES1   0.0000
     5 C       28.2054  46.9483   1.2457   C.3       1 RES1   0.0000
     6 C       29.3020  46.5181   2.1800   C.2       1 RES1   0.0000
     7 C       30.4053  45.8690   1.7946   C.2       1 RES1   0.0000
     8 C       30.6153  45.4750   0.3847   C.2       1 RES1   0.0000
     9 C       31.7904  44.9257   0.0402   C.2       1 RES1   0.0000
    10 C       31.9806  44.4970  -1.3893   C.ar      1 RES1   0.0000
    11 C       31.1196  44.8867  -2.3913   C.ar      1 RES1   0.0000
    12 C       31.5992  44.2786  -3.5474   C.ar      1 RES1   0.0000
    13 N       32.7138  43.5808  -3.2322   N.ar      1 RES1   0.0000
    14 N       32.9394  43.7187  -1.9216   N.ar      1 RES1   0.0000
    15 C       33.9463  43.1572  -1.1994   C.ar      1 RES1   0.0000
    16 C       35.2496  43.1661  -1.6983   C.ar      1 RES1   0.0000
    17 C       36.2849  42.5959  -0.9559   C.ar      1 RES1   0.0000
    18 C       36.0167  42.0169   0.2855   C.ar      1 RES1   0.0000
    19 C       34.7126  42.0052   0.7829   C.ar      1 RES1   0.0000
    20 C       33.6770  42.5723   0.0389   C.ar      1 RES1   0.0000
    21 C       29.9468  45.8043  -2.1101   C.3       1 RES1   0.0000
    22 C       29.4850  45.6563  -0.6253   C.3       1 RES1   0.0000
    23 C       28.6757  46.9370  -0.2382   C.3       1 RES1   0.0000
    24 C       27.4996  47.3216  -1.1958   C.3       1 RES1   0.0000
    25 C       27.1063  48.8035  -0.9901   C.3       1 RES1   0.0000
    26 C       26.7522  48.7935   0.5577   C.3       1 RES1   0.0000
    27 C       25.5335  49.5767   1.2195   C.3       1 RES1   0.0000
    28 C       24.3155  49.4297   0.3369   C.2       1 RES1   0.0000
    29 O       23.3890  48.7177   0.6883   O.2       1 RES1   0.0000
    30 C       24.2556  50.1350  -0.9914   C.3       1 RES1   0.0000
    31 O       24.1740  49.1500  -2.0285   O.3       1 RES1   0.0000
    32 O       25.4548  50.9723   1.5955   O.3       1 RES1   0.0000
    33 C       27.4945  50.2130   0.5162   C.3       1 RES1   0.0000
    34 O       26.3106  46.5704  -0.9261   O.3       1 RES1   0.0000
    35 C       28.7026  44.3248  -0.4995   C.3       1 RES1   0.0000
    36 C       31.4355  45.5235   2.8435   C.3       1 RES1   0.0000
    37 H1      23.5562  49.3222   3.2253   H         1 RES1   0.0000
    38 H2      24.5167  48.3644   4.3933   H         1 RES1   0.0000
    39 H3      24.9245  50.0747   4.1045   H         1 RES1   0.0000
    40 H4      25.1875  47.6661   2.2046   H         1 RES1   0.0000
    41 H5      27.2857  49.4364   3.4728   H         1 RES1   0.0000
    42 H6      27.0946  47.6641   3.6081   H         1 RES1   0.0000
    43 H7      28.8065  48.8959   1.7746   H         1 RES1   0.0000
    44 H8      27.3293  46.2963   1.3763   H         1 RES1   0.0000
    45 H9      29.1801  46.7590   3.2341   H         1 RES1   0.0000
    46 H10     32.6174  44.7606   0.7266   H         1 RES1   0.0000
    47 H11     31.1562  44.3538  -4.5338   H         1 RES1   0.0000
    48 H12     35.4574  43.6167  -2.6625   H         1 RES1   0.0000
    49 H13     37.2976  42.6029  -1.3434   H         1 RES1   0.0000
    50 H14     36.8214  41.5761   0.8634   H         1 RES1   0.0000
    51 H15     34.5040  41.5552   1.7472   H         1 RES1   0.0000
    52 H16     32.6631  42.5584   0.4234   H         1 RES1   0.0000
    53 H17     29.1473  45.5577  -2.8234   H         1 RES1   0.0000
    54 H18     30.2999  46.8288  -2.2991   H         1 RES1   0.0000
    55 H19     29.4154  47.7479  -0.3213   H         1 RES1   0.0000
    56 H20     27.7626  47.2110  -2.2567   H         1 RES1   0.0000
    57 H21     27.9071  49.3532  -1.5135   H         1 RES1   0.0000
    58 H22     26.1747  48.9791  -1.5491   H         1 RES1   0.0000
    59 H23     23.3795  50.7920  -1.0603   H         1 RES1   0.0000
    60 H24     25.1712  50.7274  -1.1395   H         1 RES1   0.0000
    61 H25     23.9203  48.3067  -1.6703   H         1 RES1   0.0000
    62 H26     25.0333  51.5458   0.9664   H         1 RES1   0.0000
    63 H27     27.6418  50.7008   1.4893   H         1 RES1   0.0000
    64 H28     28.5434  50.2159   0.1674   H         1 RES1   0.0000
    65 H29     26.9592  50.9338  -0.1287   H         1 RES1   0.0000
    66 H30     26.0637  45.9997  -1.6395   H         1 RES1   0.0000
    67 H31     29.4158  43.4888  -0.5537   H         1 RES1   0.0000
    68 H32     27.9823  44.1893  -1.3162   H         1 RES1   0.0000
    69 H33     28.1802  44.2697   0.4661   H         1 RES1   0.0000
    70 H34     32.3619  46.0851   2.6521   H         1 RES1   0.0000
    71 H35     31.0905  45.7710   3.8579   H         1 RES1   0.0000
    72 H36     31.6473  44.4441   2.8157   H         1 RES1   0.0000
    73 ****    33.2735  43.0520  -3.8703   Du        1 RES1   0.0000
    74 ****    23.4353  48.2310   1.5606   Du        1 RES1   0.0000
    75 ****    22.5833  48.6209   0.1038   Du        1 RES1   0.0000
    76 ****    25.0668  49.0640  -2.4709   Du        1 RES1   0.0000
    77 ****    23.4943  49.4385  -2.7029   Du        1 RES1   0.0000
    78 ****    26.3870  51.3050   1.7380   Du        1 RES1   0.0000
    79 ****    24.9451  51.0308   2.4539   Du        1 RES1   0.0000
    80 ****    25.5612  47.2102  -0.7559   Du        1 RES1   0.0000
    81 ****    26.4644  46.0125  -0.1105   Du        1 RES1   0.0000
@<TRIPOS>BOND
     1     1     2    1
     2     2     3    1
     3     3     4    1
     4     4     5    1
     5     5     6    1
     6     6     7    2
     7     7     8    1
     8     8     9    2
     9     9    10    1
    10    10    11   ar
    11    11    12   ar
    12    12    13   ar
    13    13    14   ar
    14    10    14   ar
    15    14    15    1
    16    15    16   ar
    17    16    17   ar
    18    17    18   ar
    19    18    19   ar
    20    19    20   ar
    21    15    20   ar
    22    11    21    1
    23    21    22    1
    24     8    22    1
    25    22    23    1
    26     5    23    1
    27    23    24    1
    28    24    25    1
    29    25    26    1
    30     4    26    1
    31    26    27    1
    32     2    27    1
    33    27    28    1
    34    28    29    2
    35    28    30    1
    36    30    31    1
    37    27    32    1
    38    26    33    1
    39    24    34    1
    40    22    35    1
    41     7    36    1
    42     1    37    1
    43     1    38    1
    44     1    39    1
    45     2    40    1
    46     3    41    1
    47     3    42    1
    48     4    43    1
    49     5    44    1
    50     6    45    1
    51     9    46    1
    52    12    47    1
    53    16    48    1
    54    17    49    1
    55    18    50    1
    56    19    51    1
    57    20    52    1
    58    21    53    1
    59    21    54    1
    60    23    55    1
    61    24    56    1
    62    25    57    1
    63    25    58    1
    64    30    59    1
    65    30    60    1
    66    31    61    1
    67    32    62    1
    68    33    63    1
    69    33    64    1
    70    33    65    1
    71    34    66    1
    72    35    67    1
    73    35    68    1
    74    35    69    1
    75    36    70    1
    76    36    71    1
    77    36    72    1
    78    13    73    1
    79    29    74    1
    80    29    75    1
    81    31    76    1
    82    31    77    1
    83    32    78    1
    84    32    79    1
    85    34    80    1
    86    34    81    1
@<TRIPOS>SUBSTRUCTURE
     1 RES1        1 GROUP             0 ****  ****    0  
@<TRIPOS>MOLECULE
31.7027
    81    86     1     0     0
SMALL
NO_CHARGES
****
Generated from the CSD

@<TRIPOS>ATOM
     1 C       28.7109  31.3340  25.6961   C.3       1 RES1   0.0000
     2 C       29.2370  31.9491  24.3777   C.3       1 RES1   0.0000
     3 C       29.8186  33.3784  24.5545   C.3       1 RES1   0.0000
     4 C       29.9672  33.9806  23.1271   C.3       1 RES1   0.0000
     5 C       31.3972  33.8958  22.5350   C.3       1 RES1   0.0000
     6 C       32.2165  34.9498  23.2267   C.2       1 RES1   0.0000
     7 C       33.0602  35.7762  22.6004   C.2       1 RES1   0.0000
     8 C       33.2906  35.6834  21.1426   C.2       1 RES1   0.0000
     9 C       34.0626  36.6106  20.5547   C.2       1 RES1   0.0000
    10 C       34.3185  36.4870  19.0773   C.ar      1 RES1   0.0000
    11 C       33.5875  35.6378  18.2761   C.ar      1 RES1   0.0000
    12 C       34.1265  35.7782  17.0009   C.ar      1 RES1   0.0000
    13 N       35.1189  36.6951  17.0550   N.ar      1 RES1   0.0000
    14 N       35.2289  37.1212  18.3176   N.ar      1 RES1   0.0000
    15 C       36.1214  38.0262  18.8026   C.ar      1 RES1   0.0000
    16 C       36.3900  39.1925  18.0849   C.ar      1 RES1   0.0000
    17 C       37.3009  40.1249  18.5841   C.ar      1 RES1   0.0000
    18 C       37.9429  39.8908  19.8012   C.ar      1 RES1   0.0000
    19 C       37.6766  38.7227  20.5174   C.ar      1 RES1   0.0000
    20 C       36.7684  37.7889  20.0164   C.ar      1 RES1   0.0000
    21 C       32.4545  34.8037  18.8390   C.3       1 RES1   0.0000
    22 C       32.6906  34.5202  20.3568   C.3       1 RES1   0.0000
    23 C       31.3159  34.1446  21.0005   C.3       1 RES1   0.0000
    24 C       30.5170  32.9995  20.2944   C.3       1 RES1   0.0000
    25 C       29.0285  33.0508  20.7120   C.3       1 RES1   0.0000
    26 C       29.1683  32.9156  22.2878   C.3       1 RES1   0.0000
    27 C       28.2063  32.0519  23.2180   C.3       1 RES1   0.0000
    28 C       27.9166  30.7335  22.5384   C.2       1 RES1   0.0000
    29 O       28.4224  29.7057  22.9584   O.2       1 RES1   0.0000
    30 C       27.0299  30.6889  21.3229   C.3       1 RES1   0.0000
    31 O       25.8976  29.8607  21.6132   O.3       1 RES1   0.0000
    32 O       26.9033  32.4027  23.7419   O.3       1 RES1   0.0000
    33 C       27.9892  34.0006  22.2691   C.3       1 RES1   0.0000
    34 O       30.9764  31.6987  20.6789   O.3       1 RES1   0.0000
    35 C       33.7872  33.4318  20.4739   C.3       1 RES1   0.0000
    36 C       33.7980  36.8048  23.4241   C.3       1 RES1   0.0000
    37 H1      28.2380  30.3633  25.4863   H         1 RES1   0.0000
    38 H2      29.5614  31.1762  26.3760   H         1 RES1   0.0000
    39 H3      27.9850  31.9878  26.1995   H         1 RES1   0.0000
    40 H4      30.0886  31.3377  24.0471   H         1 RES1   0.0000
    41 H5      29.0990  33.9842  25.1249   H         1 RES1   0.0000
    42 H6      30.7675  33.3424  25.1089   H         1 RES1   0.0000
    43 H7      29.7577  35.0641  23.1529   H         1 RES1   0.0000
    44 H8      31.8203  32.9018  22.7415   H         1 RES1   0.0000
    45 H9      32.1044  35.0382  24.3055   H         1 RES1   0.0000
    46 H10     34.5252  37.4459  21.0747   H         1 RES1   0.0000
    47 H11     33.8037  35.2451  16.1140   H         1 RES1   0.0000
    48 H12     35.8904  39.3740  17.1398   H         1 RES1   0.0000
    49 H13     37.5095  41.0312  18.0266   H         1 RES1   0.0000
    50 H14     38.6487  40.6162  20.1902   H         1 RES1   0.0000
    51 H15     38.1755  38.5406  21.4628   H         1 RES1   0.0000
    52 H16     36.5656  36.8792  20.5707   H         1 RES1   0.0000
    53 H17     32.3891  33.8800  18.2462   H         1 RES1   0.0000
    54 H18     31.5352  35.3915  18.6996   H         1 RES1   0.0000
    55 H19     30.7132  35.0576  20.8793   H         1 RES1   0.0000
    56 H20     30.5388  33.0799  19.1990   H         1 RES1   0.0000
    57 H21     28.6288  33.8934  20.1222   H         1 RES1   0.0000
    58 H22     28.5474  32.1354  20.3352   H         1 RES1   0.0000
    59 H23     26.6729  31.6891  21.0471   H         1 RES1   0.0000
    60 H24     27.5801  30.2494  20.4771   H         1 RES1   0.0000
    61 H25     25.0999  30.2544  21.2776   H         1 RES1   0.0000
    62 H26     26.8975  32.7829  24.6124   H         1 RES1   0.0000
    63 H27     27.6968  34.4016  23.2490   H         1 RES1   0.0000
    64 H28     28.2001  34.9557  21.7539   H         1 RES1   0.0000
    65 H29     27.0735  33.5987  21.7981   H         1 RES1   0.0000
    66 H30     31.6327  31.3499  20.0930   H         1 RES1   0.0000
    67 H31     34.7590  33.8797  20.2178   H         1 RES1   0.0000
    68 H32     33.6206  32.6000  19.7779   H         1 RES1   0.0000
    69 H33     33.8456  33.0467  21.5018   H         1 RES1   0.0000
    70 H34     33.4654  37.8144  23.1406   H         1 RES1   0.0000
    71 H35     33.6180  36.6769  24.5015   H         1 RES1   0.0000
    72 H36     34.8808  36.7123  23.2521   H         1 RES1   0.0000
    73 ****    35.6753  37.0019  16.2829   Du        1 RES1   0.0000
    74 ****    29.0290  29.7354  23.7529   Du        1 RES1   0.0000
    75 ****    28.2303  28.8336  22.5083   Du        1 RES1   0.0000
    76 ****    25.8174  29.7492  22.6038   Du        1 RES1   0.0000
    77 ****    26.0271  28.9657  21.1864   Du        1 RES1   0.0000
    78 ****    26.3481  31.5714  23.7663   Du        1 RES1   0.0000
    79 ****    26.4880  33.0626  23.1158   Du        1 RES1   0.0000
    80 ****    30.1948  31.0750  20.6892   Du        1 RES1   0.0000
    81 ****    31.3680  31.7576  21.5971   Du        1 RES1   0.0000
@<TRIPOS>BOND
     1     1     2    1
     2     2     3    1
     3     3     4    1
     4     4     5    1
     5     5     6    1
     6     6     7    2
     7     7     8    1
     8     8     9    2
     9     9    10    1
    10    10    11   ar
    11    11    12   ar
    12    12    13   ar
    13    13    14   ar
    14    10    14   ar
    15    14    15    1
    16    15    16   ar
    17    16    17   ar
    18    17    18   ar
    19    18    19   ar
    20    19    20   ar
    21    15    20   ar
    22    11    21    1
    23    21    22    1
    24     8    22    1
    25    22    23    1
    26     5    23    1
    27    23    24    1
    28    24    25    1
    29    25    26    1
    30     4    26    1
    31    26    27    1
    32     2    27    1
    33    27    28    1
    34    28    29    2
    35    28    30    1
    36    30    31    1
    37    27    32    1
    38    26    33    1
    39    24    34    1
    40    22    35    1
    41     7    36    1
    42     1    37    1
    43     1    38    1
    44     1    39    1
    45     2    40    1
    46     3    41    1
    47     3    42    1
    48     4    43    1
    49     5    44    1
    50     6    45    1
    51     9    46    1
    52    12    47    1
    53    16    48    1
    54    17    49    1
    55    18    50    1
    56    19    51    1
    57    20    52    1
    58    21    53    1
    59    21    54    1
    60    23    55    1
    61    24    56    1
    62    25    57    1
    63    25    58    1
    64    30    59    1
    65    30    60    1
    66    31    61    1
    67    32    62    1
    68    33    63    1
    69    33    64    1
    70    33    65    1
    71    34    66    1
    72    35    67    1
    73    35    68    1
    74    35    69    1
    75    36    70    1
    76    36    71    1
    77    36    72    1
    78    13    73    1
    79    29    74    1
    80    29    75    1
    81    31    76    1
    82    31    77    1
    83    32    78    1
    84    32    79    1
    85    34    80    1
    86    34    81    1
@<TRIPOS>SUBSTRUCTURE
     1 RES1        1 GROUP             0 ****  ****    0  
