CQW_A_999
amProtoss 04151915493D 1   1.00000     0.00000     0
Protoss beta amdserver
 31 34  0  0  0  0            999 V2000
    5.1890    0.0340   16.0180 Cl  0  0  0  0  0  0  0  0  0  0  0  0
    3.5360    4.9980   15.8130 N   0  0  0  0  0  0  0  0  0  0  0  0
    5.7690    4.9660   16.3990 N   0  0  0  0  0  0  0  0  0  0  0  0
    2.4620    2.7910   15.5040 N   0  0  0  0  0  0  0  0  0  0  0  0
    7.6210    1.4130   20.1620 N   0  3  0  0  0  0  0  0  0  0  0  0
    8.5560    3.3120   20.6860 N   0  0  0  0  0  0  0  0  0  0  0  0
    7.0580    3.0390   16.7200 N   0  0  0  0  0  0  0  0  0  0  0  0
    4.6600    5.6530   16.1330 C   0  0  0  0  0  0  0  0  0  0  0  0
    8.1940    2.0980   21.1470 C   0  0  0  0  0  0  0  0  0  0  0  0
    2.9290    1.5050   15.5760 C   0  0  0  0  0  0  0  0  0  0  0  0
    8.2690    3.8790   16.8780 C   0  0  0  0  0  0  0  0  0  0  0  0
    7.1640    1.8790   17.6360 C   0  0  0  0  0  0  0  0  0  0  0  0
    8.4480    4.4160   18.3160 C   0  0  0  0  0  0  0  0  0  0  0  0
    3.5050    3.6640   15.7790 C   0  0  0  0  0  0  0  0  0  0  0  0
    4.2380    1.4870   15.8800 C   0  0  0  0  0  0  0  0  0  0  0  0
    5.8100    3.6280   16.4240 C   0  0  0  0  0  0  0  0  0  0  0  0
    7.5980    2.2150   19.0420 C   0  0  0  0  0  0  0  0  0  0  0  0
    8.1540    3.3920   19.3700 C   0  0  0  0  0  0  0  0  0  0  0  0
    4.6550    2.8970   16.0700 C   0  0  0  0  0  0  0  0  0  0  0  0
    1.5225    3.0572   15.2884 H   0  0  0  0  0  0  0  0  0  0  0  0
    7.2685    0.4792   20.2234 H   0  0  0  0  0  0  0  0  0  0  0  0
    4.6660    6.6522   16.1718 H   0  0  0  0  0  0  0  0  0  0  0  0
    8.3339    1.7660   22.0799 H   0  0  0  0  0  0  0  0  0  0  0  0
    2.3709    0.6894   15.4229 H   0  0  0  0  0  0  0  0  0  0  0  0
    8.2008    4.6570   16.2535 H   0  0  0  0  0  0  0  0  0  0  0  0
    9.0706    3.3303   16.6407 H   0  0  0  0  0  0  0  0  0  0  0  0
    7.8287    1.2390   17.2506 H   0  0  0  0  0  0  0  0  0  0  0  0
    6.2673    1.4391   17.6848 H   0  0  0  0  0  0  0  0  0  0  0  0
    7.8296    5.1913   18.4449 H   0  0  0  0  0  0  0  0  0  0  0  0
    9.3937    4.7221   18.4254 H   0  0  0  0  0  0  0  0  0  0  0  0
    9.0296    4.0243   21.2041 H   0  0  0  0  0  0  0  0  0  0  0  0
  1 15  1  0  0  0  0
  2  8  2  0  0  0  0
  2 14  1  0  0  0  0
  3  8  1  0  0  0  0
  3 16  2  0  0  0  0
  4 10  1  0  0  0  0
  4 14  1  0  0  0  0
  5  9  2  0  0  0  0
  5 17  1  0  0  0  0
  6  9  1  0  0  0  0
  6 18  1  0  0  0  0
  7 11  1  0  0  0  0
  7 12  1  0  0  0  0
  7 16  1  0  0  0  0
 10 15  2  0  0  0  0
 11 13  1  0  0  0  0
 12 17  1  0  0  0  0
 13 18  1  0  0  0  0
 14 19  2  0  0  0  0
 15 19  1  0  0  0  0
 16 19  1  0  0  0  0
 17 18  2  0  0  0  0
  4 20  1  0  0  0  0
  5 21  1  0  0  0  0
  8 22  1  0  0  0  0
  9 23  1  0  0  0  0
 10 24  1  0  0  0  0
 11 25  1  0  0  0  0
 11 26  1  0  0  0  0
 12 27  1  0  0  0  0
 12 28  1  0  0  0  0
 13 29  1  0  0  0  0
 13 30  1  0  0  0  0
  6 31  1  0  0  0  0
M  CHG  1   5   1
M  END
$$$$
