@<TRIPOS>MOLECULE
constraints
     4     0     4     0     0
SMALL
NO_CHARGES
****
Generated from the CSD - Crystal connectivity not present

@<TRIPOS>ATOM
     1 17.013999938964844    1.9318   6.1468  15.6530   H         1 ALA230   0.0000
     2 16.04699993133545    8.7055  -2.3458  24.5427   H         2 ASN279   0.0000
     3 17.03950023651123    6.7247  -0.9840  20.5351   O.3       3 ASP292   0.0000
     4 17.086999893188477    0.0927   3.5480  14.2691   O.3       4 GLU228   0.0000
@<TRIPOS>SUBSTRUCTURE
     1 ALA230      1 RESIDUE           0 A     ALA     0  
     2 ASN279      2 RESIDUE           0 A     ASN     0  
     3 ASP292      3 RESIDUE           0 A     ASP     0  
     4 GLU228      4 RESIDUE           0 A     GLU     0  
