@<TRIPOS>MOLECULE
55.5659
    70    72     1     0     0
SMALL
NO_CHARGES
****
Generated from the CSD

@<TRIPOS>ATOM
     1 C       95.7842  91.6662  84.6622   C.ar      1 RES1   0.0000
     2 N       94.4913  91.3819  84.3823   N.ar      1 RES1   0.0000
     3 C       93.7128  92.2364  83.6858   C.ar      1 RES1   0.0000
     4 C       94.2974  93.4276  83.2648   C.ar      1 RES1   0.0000
     5 C       95.6230  93.6942  83.5693   C.ar      1 RES1   0.0000
     6 N       96.3672  92.8174  84.2644   N.ar      1 RES1   0.0000
     7 N       95.8990  94.9011  83.0461   N.ar      1 RES1   0.0000
     8 C       94.8023  95.3787  82.4235   C.ar      1 RES1   0.0000
     9 N       93.8148  94.4703  82.5643   N.ar      1 RES1   0.0000
    10 C       97.0983  95.5430  83.1139   C.3       1 RES1   0.0000
    11 C       98.2783  94.6237  82.7212   C.3       1 RES1   0.0000
    12 C       98.9314  95.3646  81.5359   C.3       1 RES1   0.0000
    13 C       98.4930  96.8150  81.8010   C.3       1 RES1   0.0000
    14 O       97.1260  96.6174  82.1663   O.3       1 RES1   0.0000
    15 C       98.6055  97.7159  80.5557   C.3       1 RES1   0.0000
    16 O       97.8005  97.1659  79.5086   O.3       1 RES1   0.0000
    17 P       96.9239  98.0942  78.5452   P.3       1 RES1   0.0000
    18 O       95.8985  98.8156  79.3502   O.2       1 RES1   0.0000
    19 O       97.8757  99.1596  77.8248   O.3       1 RES1   0.0000
    20 O       96.1965  97.1829  77.4480   O.3       1 RES1   0.0000
    21 P       94.6039  97.3188  77.5493   P.3       1 RES1   0.0000
    22 O       94.2193  98.7563  77.4735   O.2       1 RES1   0.0000
    23 O       94.1275  96.7212  78.9549   O.3       1 RES1   0.0000
    24 O       93.9118  96.5036  76.3569   O.3       1 RES1   0.0000
    25 P       94.3012  97.1063  74.9254   P.3       1 RES1   0.0000
    26 O       95.7809  97.0878  74.7515   O.2       1 RES1   0.0000
    27 O       93.6180  96.2429  73.7644   O.3       1 RES1   0.0000
    28 O       93.7856  98.6177  74.8300   O.3       1 RES1   0.0000
    29 O      100.3569  95.2319  81.4951   O.3       1 RES1   0.0000
    30 O       99.1805  94.5380  83.8316   O.3       1 RES1   0.0000
    31 N       92.4223  91.9526  83.4074   N.pl3     1 RES1   0.0000
    32 H1      96.3704  90.9474  85.2233   H         1 RES1   0.0000
    33 H2      94.7255  96.3257  81.9013   H         1 RES1   0.0000
    34 H3      97.2751  95.9520  84.1206   H         1 RES1   0.0000
    35 H4      97.9406  93.6181  82.4257   H         1 RES1   0.0000
    36 H5      98.4760  95.0174  80.5954   H         1 RES1   0.0000
    37 H6      99.0598  97.2323  82.6477   H         1 RES1   0.0000
    38 H7      99.6541  97.7825  80.2290   H         1 RES1   0.0000
    39 H8      98.2367  98.7216  80.8074   H         1 RES1   0.0000
    40 H9      98.5930  98.7055  77.3985   H         1 RES1   0.0000
    41 H10     94.7408  96.0538  79.2392   H         1 RES1   0.0000
    42 H11     93.7766  95.3195  73.9193   H         1 RES1   0.0000
    43 H12     92.8861  98.6665  75.1315   H         1 RES1   0.0000
    44 H13    100.6684  95.2732  80.5981   H         1 RES1   0.0000
    45 H14     99.1370  93.6804  84.2380   H         1 RES1   0.0000
    46 H15     92.0066  91.0658  83.7276   H         1 RES1   0.0000
    47 H16     91.8524  92.6240  82.8734   H         1 RES1   0.0000
    48 ****    94.1028  90.5168  84.6996   Du        1 RES1   0.0000
    49 ****    97.3241  93.0117  84.4807   Du        1 RES1   0.0000
    50 ****    92.8840  94.5569  82.2091   Du        1 RES1   0.0000
    51 ****    96.5858  96.3781  81.3595   Du        1 RES1   0.0000
    52 ****    96.7570  97.4499  82.5796   Du        1 RES1   0.0000
    53 ****    94.9616  98.4684  79.3933   Du        1 RES1   0.0000
    54 ****    96.1470  99.6469  79.8473   Du        1 RES1   0.0000
    55 ****    98.2406  99.7946  78.5056   Du        1 RES1   0.0000
    56 ****    97.3505  99.6680  77.1424   Du        1 RES1   0.0000
    57 ****    94.3957  99.2778  76.6387   Du        1 RES1   0.0000
    58 ****    93.7847  99.1996  78.2575   Du        1 RES1   0.0000
    59 ****    93.2182  96.3173  78.8545   Du        1 RES1   0.0000
    60 ****    94.0935  97.4540  79.6344   Du        1 RES1   0.0000
    61 ****    96.1777  97.1572  73.8363   Du        1 RES1   0.0000
    62 ****    96.3771  97.0059  75.5501   Du        1 RES1   0.0000
    63 ****    94.0082  96.5042  72.8815   Du        1 RES1   0.0000
    64 ****    92.6329  96.4149  73.7573   Du        1 RES1   0.0000
    65 ****    93.8359  98.9274  73.8805   Du        1 RES1   0.0000
    66 ****    94.3607  99.2024  75.4022   Du        1 RES1   0.0000
    67 ****   100.6174  94.3527  81.8941   Du        1 RES1   0.0000
    68 ****   100.7720  95.9732  82.0224   Du        1 RES1   0.0000
    69 ****    98.9353  95.2333  84.5072   Du        1 RES1   0.0000
    70 ****   100.1130  94.7006  83.5092   Du        1 RES1   0.0000
@<TRIPOS>BOND
     1     1     2   ar
     2     2     3   ar
     3     3     4   ar
     4     4     5   ar
     5     5     6   ar
     6     1     6   ar
     7     5     7   ar
     8     7     8   ar
     9     8     9   ar
    10     4     9   ar
    11     7    10    1
    12    10    11    1
    13    11    12    1
    14    12    13    1
    15    13    14    1
    16    10    14    1
    17    13    15    1
    18    15    16    1
    19    16    17    1
    20    17    18    2
    21    17    19    1
    22    17    20    1
    23    20    21    1
    24    21    22    2
    25    21    23    1
    26    21    24    1
    27    24    25    1
    28    25    26    2
    29    25    27    1
    30    25    28    1
    31    12    29    1
    32    11    30    1
    33     3    31    1
    34     1    32    1
    35     8    33    1
    36    10    34    1
    37    11    35    1
    38    12    36    1
    39    13    37    1
    40    15    38    1
    41    15    39    1
    42    19    40    1
    43    23    41    1
    44    27    42    1
    45    28    43    1
    46    29    44    1
    47    30    45    1
    48    31    46    1
    49    31    47    1
    50     2    48    1
    51     6    49    1
    52     9    50    1
    53    14    51    1
    54    14    52    1
    55    18    53    1
    56    18    54    1
    57    19    55    1
    58    19    56    1
    59    22    57    1
    60    22    58    1
    61    23    59    1
    62    23    60    1
    63    26    61    1
    64    26    62    1
    65    27    63    1
    66    27    64    1
    67    28    65    1
    68    28    66    1
    69    29    67    1
    70    29    68    1
    71    30    69    1
    72    30    70    1
@<TRIPOS>SUBSTRUCTURE
     1 RES1        1 GROUP             0 ****  ****    0  
@<TRIPOS>MOLECULE
51.8356
    70    72     1     0     0
SMALL
NO_CHARGES
****
Generated from the CSD

@<TRIPOS>ATOM
     1 C       93.3921  93.6430  84.9026   C.ar      1 RES1   0.0000
     2 N       92.7768  92.6001  84.2989   N.ar      1 RES1   0.0000
     3 C       93.3857  91.8809  83.3328   C.ar      1 RES1   0.0000
     4 C       94.6791  92.2575  82.9817   C.ar      1 RES1   0.0000
     5 C       95.2834  93.3326  83.6142   C.ar      1 RES1   0.0000
     6 N       94.6450  94.0242  84.5732   N.ar      1 RES1   0.0000
     7 N       96.5050  93.4586  83.0681   N.ar      1 RES1   0.0000
     8 C       96.6787  92.4985  82.1371   C.ar      1 RES1   0.0000
     9 N       95.5493  91.7625  82.0824   N.ar      1 RES1   0.0000
    10 C       97.4353  94.3945  83.4052   C.3       1 RES1   0.0000
    11 C       98.8445  94.0369  82.8780   C.3       1 RES1   0.0000
    12 C       99.2147  95.2463  81.9944   C.3       1 RES1   0.0000
    13 C       98.3363  96.3523  82.6037   C.3       1 RES1   0.0000
    14 O       97.1084  95.6457  82.7881   O.3       1 RES1   0.0000
    15 C       98.1427  97.5560  81.6612   C.3       1 RES1   0.0000
    16 O       97.7029  97.0823  80.3848   O.3       1 RES1   0.0000
    17 P       96.9739  98.0446  79.3356   P.3       1 RES1   0.0000
    18 O       97.1763  99.4640  79.7410   O.2       1 RES1   0.0000
    19 O       97.6005  97.8159  77.8814   O.3       1 RES1   0.0000
    20 O       95.4074  97.7147  79.3127   O.3       1 RES1   0.0000
    21 P       94.7900  97.7436  80.7902   P.3       1 RES1   0.0000
    22 O       95.4809  98.7863  81.6000   O.2       1 RES1   0.0000
    23 O       95.0202  96.3133  81.4692   O.3       1 RES1   0.0000
    24 O       93.2211  98.0575  80.7179   O.3       1 RES1   0.0000
    25 P       92.3966  96.8157  80.1328   P.3       1 RES1   0.0000
    26 O       91.5236  97.2675  79.0131   O.2       1 RES1   0.0000
    27 O       93.4042  95.6918  79.6020   O.3       1 RES1   0.0000
    28 O       91.4804  96.1973  81.2892   O.3       1 RES1   0.0000
    29 O      100.6070  95.5797  82.0372   O.3       1 RES1   0.0000
    30 O       99.7361  93.9260  83.9947   O.3       1 RES1   0.0000
    31 N       92.7709  90.8407  82.7300   N.pl3     1 RES1   0.0000
    32 H1      92.8630  94.1895  85.6748   H         1 RES1   0.0000
    33 H2      97.5684  92.3438  81.5372   H         1 RES1   0.0000
    34 H3      97.4802  94.5370  84.4960   H         1 RES1   0.0000
    35 H4      98.8449  93.1023  82.2954   H         1 RES1   0.0000
    36 H5      98.8867  95.0547  80.9609   H         1 RES1   0.0000
    37 H6      98.7465  96.6684  83.5754   H         1 RES1   0.0000
    38 H7      99.0880  98.1087  81.5525   H         1 RES1   0.0000
    39 H8      97.3765  98.2225  82.0850   H         1 RES1   0.0000
    40 H9      98.5385  97.9627  77.9144   H         1 RES1   0.0000
    41 H10     95.2633  95.6819  80.8024   H         1 RES1   0.0000
    42 H11     94.2130  95.7296  80.0984   H         1 RES1   0.0000
    43 H12     91.6141  96.6828  82.0947   H         1 RES1   0.0000
    44 H13    100.7456  96.4664  81.7242   H         1 RES1   0.0000
    45 H14     99.2600  93.7125  84.7885   H         1 RES1   0.0000
    46 H15     91.8131  90.5766  83.0030   H         1 RES1   0.0000
    47 H16     93.2609  90.3097  81.9959   H         1 RES1   0.0000
    48 ****    91.8473  92.3560  84.5755   Du        1 RES1   0.0000
    49 ****    95.0845  94.7981  85.0294   Du        1 RES1   0.0000
    50 ****    95.3868  90.9830  81.4775   Du        1 RES1   0.0000
    51 ****    96.6665  95.4882  81.9049   Du        1 RES1   0.0000
    52 ****    96.4952  96.1704  83.3786   Du        1 RES1   0.0000
    53 ****    96.5547  99.8897  80.3986   Du        1 RES1   0.0000
    54 ****    97.9337  99.9909  79.3555   Du        1 RES1   0.0000
    55 ****    97.1854  98.4561  77.2350   Du        1 RES1   0.0000
    56 ****    97.4201  96.8782  77.5842   Du        1 RES1   0.0000
    57 ****    94.9775  99.2880  82.3035   Du        1 RES1   0.0000
    58 ****    96.4480  98.9842  81.4401   Du        1 RES1   0.0000
    59 ****    94.1765  96.0172  81.9170   Du        1 RES1   0.0000
    60 ****    95.7519  96.3802  82.1476   Du        1 RES1   0.0000
    61 ****    90.5312  97.2954  79.1328   Du        1 RES1   0.0000
    62 ****    91.9301  97.5427  78.1419   Du        1 RES1   0.0000
    63 ****    93.5999  95.8502  78.6342   Du        1 RES1   0.0000
    64 ****    92.9864  94.7902  79.7143   Du        1 RES1   0.0000
    65 ****    91.7274  95.2390  81.4331   Du        1 RES1   0.0000
    66 ****    90.5191  96.2570  81.0201   Du        1 RES1   0.0000
    67 ****   101.1161  94.9427  81.4584   Du        1 RES1   0.0000
    68 ****   100.9341  95.5081  82.9795   Du        1 RES1   0.0000
    69 ****   100.2112  94.7967  84.1220   Du        1 RES1   0.0000
    70 ****   100.4044  93.2055  83.8098   Du        1 RES1   0.0000
@<TRIPOS>BOND
     1     1     2   ar
     2     2     3   ar
     3     3     4   ar
     4     4     5   ar
     5     5     6   ar
     6     1     6   ar
     7     5     7   ar
     8     7     8   ar
     9     8     9   ar
    10     4     9   ar
    11     7    10    1
    12    10    11    1
    13    11    12    1
    14    12    13    1
    15    13    14    1
    16    10    14    1
    17    13    15    1
    18    15    16    1
    19    16    17    1
    20    17    18    2
    21    17    19    1
    22    17    20    1
    23    20    21    1
    24    21    22    2
    25    21    23    1
    26    21    24    1
    27    24    25    1
    28    25    26    2
    29    25    27    1
    30    25    28    1
    31    12    29    1
    32    11    30    1
    33     3    31    1
    34     1    32    1
    35     8    33    1
    36    10    34    1
    37    11    35    1
    38    12    36    1
    39    13    37    1
    40    15    38    1
    41    15    39    1
    42    19    40    1
    43    23    41    1
    44    27    42    1
    45    28    43    1
    46    29    44    1
    47    30    45    1
    48    31    46    1
    49    31    47    1
    50     2    48    1
    51     6    49    1
    52     9    50    1
    53    14    51    1
    54    14    52    1
    55    18    53    1
    56    18    54    1
    57    19    55    1
    58    19    56    1
    59    22    57    1
    60    22    58    1
    61    23    59    1
    62    23    60    1
    63    26    61    1
    64    26    62    1
    65    27    63    1
    66    27    64    1
    67    28    65    1
    68    28    66    1
    69    29    67    1
    70    29    68    1
    71    30    69    1
    72    30    70    1
@<TRIPOS>SUBSTRUCTURE
     1 RES1        1 GROUP             0 ****  ****    0  
@<TRIPOS>MOLECULE
50.9606
    70    72     1     0     0
SMALL
NO_CHARGES
****
Generated from the CSD

@<TRIPOS>ATOM
     1 C       93.8851 101.8084  78.3033   C.ar      1 RES1   0.0000
     2 N       92.9342 102.1383  79.2075   N.ar      1 RES1   0.0000
     3 C       92.7834 101.4517  80.3596   C.ar      1 RES1   0.0000
     4 C       93.6509 100.3856  80.5807   C.ar      1 RES1   0.0000
     5 C       94.6131 100.0678  79.6350   C.ar      1 RES1   0.0000
     6 N       94.7334 100.7761  78.4995   N.ar      1 RES1   0.0000
     7 N       95.2837  99.0066  80.1153   N.ar      1 RES1   0.0000
     8 C       94.7810  98.6694  81.3205   C.ar      1 RES1   0.0000
     9 N       93.7710  99.5182  81.6025   N.ar      1 RES1   0.0000
    10 C       96.3198  98.3736  79.4984   C.3       1 RES1   0.0000
    11 C       97.3466  99.3681  78.9082   C.3       1 RES1   0.0000
    12 C       98.6652  98.9810  79.6097   C.3       1 RES1   0.0000
    13 C       98.3968  97.5123  79.9796   C.3       1 RES1   0.0000
    14 O       97.0525  97.5992  80.4557   O.3       1 RES1   0.0000
    15 C       99.3380  96.9864  81.0807   C.3       1 RES1   0.0000
    16 O       99.0900  95.5912  81.2784   O.3       1 RES1   0.0000
    17 P       97.9949  95.0707  82.3214   P.3       1 RES1   0.0000
    18 O       98.3251  95.5795  83.6823   O.2       1 RES1   0.0000
    19 O       96.5522  95.6119  81.8906   O.3       1 RES1   0.0000
    20 O       97.9949  93.4697  82.3361   O.3       1 RES1   0.0000
    21 P       96.7166  92.8999  83.1148   P.3       1 RES1   0.0000
    22 O       95.9674  94.0274  83.7375   O.2       1 RES1   0.0000
    23 O       97.2181  91.9051  84.2630   O.3       1 RES1   0.0000
    24 O       95.7673  92.1089  82.0958   O.3       1 RES1   0.0000
    25 P       94.5611  91.3804  82.8564   P.3       1 RES1   0.0000
    26 O       95.0726  90.1983  83.6053   O.2       1 RES1   0.0000
    27 O       93.8652  92.3970  83.8774   O.3       1 RES1   0.0000
    28 O       93.4801  90.8888  81.7846   O.3       1 RES1   0.0000
    29 O       99.8197  99.1235  78.7740   O.3       1 RES1   0.0000
    30 O       97.4349  99.1494  77.4945   O.3       1 RES1   0.0000
    31 N       91.8337 101.7808  81.2613   N.pl3     1 RES1   0.0000
    32 H1      93.9688 102.3909  77.3929   H         1 RES1   0.0000
    33 H2      95.1263  97.8592  81.9527   H         1 RES1   0.0000
    34 H3      95.9605  97.7055  78.7006   H         1 RES1   0.0000
    35 H4      97.0769 100.4154  79.1160   H         1 RES1   0.0000
    36 H5      98.7718  99.5710  80.5332   H         1 RES1   0.0000
    37 H6      98.4445  96.8809  79.0789   H         1 RES1   0.0000
    38 H7      99.1684  97.5356  82.0190   H         1 RES1   0.0000
    39 H8     100.3804  97.1279  80.7578   H         1 RES1   0.0000
    40 H9      95.9935  94.8776  81.6645   H         1 RES1   0.0000
    41 H10     96.7821  92.1187  85.0795   H         1 RES1   0.0000
    42 H11     94.0720  92.1437  84.7691   H         1 RES1   0.0000
    43 H12     92.9741  91.6325  81.4790   H         1 RES1   0.0000
    44 H13    100.5817  98.7394  79.1926   H         1 RES1   0.0000
    45 H14     98.2121  98.6483  77.2771   H         1 RES1   0.0000
    46 H15     91.2004 102.5731  81.0803   H         1 RES1   0.0000
    47 H16     91.7425 101.2387  82.1323   H         1 RES1   0.0000
    48 ****    92.3277 102.9103  79.0173   Du        1 RES1   0.0000
    49 ****    95.4301 100.5458  77.8201   Du        1 RES1   0.0000
    50 ****    93.2083  99.5051  82.4291   Du        1 RES1   0.0000
    51 ****    97.0326  98.0485  81.3488   Du        1 RES1   0.0000
    52 ****    96.6559  96.6845  80.5338   Du        1 RES1   0.0000
    53 ****    98.8970  96.3932  83.7867   Du        1 RES1   0.0000
    54 ****    97.9749  95.1073  84.4912   Du        1 RES1   0.0000
    55 ****    96.6454  96.2160  81.0992   Du        1 RES1   0.0000
    56 ****    96.1455  96.1187  82.6507   Du        1 RES1   0.0000
    57 ****    95.8035  94.8661  83.2182   Du        1 RES1   0.0000
    58 ****    95.6286  93.9454  84.6748   Du        1 RES1   0.0000
    59 ****    98.2069  92.0004  84.3782   Du        1 RES1   0.0000
    60 ****    97.0018  90.9632  84.0060   Du        1 RES1   0.0000
    61 ****    95.9590  89.8011  83.3677   Du        1 RES1   0.0000
    62 ****    94.5294  89.8020  84.3456   Du        1 RES1   0.0000
    63 ****    92.8741  92.3744  83.7462   Du        1 RES1   0.0000
    64 ****    94.2028  93.3228  83.7075   Du        1 RES1   0.0000
    65 ****    92.8683  90.2222  82.2104   Du        1 RES1   0.0000
    66 ****    93.9486  90.4639  81.0100   Du        1 RES1   0.0000
    67 ****    99.9891 100.0951  78.6091   Du        1 RES1   0.0000
    68 ****    99.6546  98.6614  77.9026   Du        1 RES1   0.0000
    69 ****    97.4741 100.0332  77.0282   Du        1 RES1   0.0000
    70 ****    96.6256  98.6473  77.1897   Du        1 RES1   0.0000
@<TRIPOS>BOND
     1     1     2   ar
     2     2     3   ar
     3     3     4   ar
     4     4     5   ar
     5     5     6   ar
     6     1     6   ar
     7     5     7   ar
     8     7     8   ar
     9     8     9   ar
    10     4     9   ar
    11     7    10    1
    12    10    11    1
    13    11    12    1
    14    12    13    1
    15    13    14    1
    16    10    14    1
    17    13    15    1
    18    15    16    1
    19    16    17    1
    20    17    18    2
    21    17    19    1
    22    17    20    1
    23    20    21    1
    24    21    22    2
    25    21    23    1
    26    21    24    1
    27    24    25    1
    28    25    26    2
    29    25    27    1
    30    25    28    1
    31    12    29    1
    32    11    30    1
    33     3    31    1
    34     1    32    1
    35     8    33    1
    36    10    34    1
    37    11    35    1
    38    12    36    1
    39    13    37    1
    40    15    38    1
    41    15    39    1
    42    19    40    1
    43    23    41    1
    44    27    42    1
    45    28    43    1
    46    29    44    1
    47    30    45    1
    48    31    46    1
    49    31    47    1
    50     2    48    1
    51     6    49    1
    52     9    50    1
    53    14    51    1
    54    14    52    1
    55    18    53    1
    56    18    54    1
    57    19    55    1
    58    19    56    1
    59    22    57    1
    60    22    58    1
    61    23    59    1
    62    23    60    1
    63    26    61    1
    64    26    62    1
    65    27    63    1
    66    27    64    1
    67    28    65    1
    68    28    66    1
    69    29    67    1
    70    29    68    1
    71    30    69    1
    72    30    70    1
@<TRIPOS>SUBSTRUCTURE
     1 RES1        1 GROUP             0 ****  ****    0  
@<TRIPOS>MOLECULE
49.4816
    70    72     1     0     0
SMALL
NO_CHARGES
****
Generated from the CSD

@<TRIPOS>ATOM
     1 C       94.0827  94.3973  84.4966   C.ar      1 RES1   0.0000
     2 N       93.4553  93.3963  83.8370   N.ar      1 RES1   0.0000
     3 C       94.1022  92.6260  82.9373   C.ar      1 RES1   0.0000
     4 C       95.4479  92.9044  82.7152   C.ar      1 RES1   0.0000
     5 C       96.0640  93.9387  83.4022   C.ar      1 RES1   0.0000
     6 N       95.3865  94.6836  84.2920   N.ar      1 RES1   0.0000
     7 N       97.3394  93.9707  82.9794   N.ar      1 RES1   0.0000
     8 C       97.5333  92.9919  82.0721   C.ar      1 RES1   0.0000
     9 N       96.3640  92.3393  81.9074   N.ar      1 RES1   0.0000
    10 C       98.2978  94.8397  83.4050   C.3       1 RES1   0.0000
    11 C       99.7156  94.2252  83.3427   C.3       1 RES1   0.0000
    12 C      100.4838  95.1887  82.4143   C.3       1 RES1   0.0000
    13 C       99.6749  96.4864  82.5810   C.3       1 RES1   0.0000
    14 O       98.3411  95.9765  82.5339   O.3       1 RES1   0.0000
    15 C       99.9180  97.4984  81.4446   C.3       1 RES1   0.0000
    16 O       99.2057  97.0709  80.2797   O.3       1 RES1   0.0000
    17 P       98.5694  98.1175  79.2512   P.3       1 RES1   0.0000
    18 O       97.8614  99.1882  80.0077   O.2       1 RES1   0.0000
    19 O       99.7345  98.7734  78.3725   O.3       1 RES1   0.0000
    20 O       97.5287  97.3599  78.2991   O.3       1 RES1   0.0000
    21 P       96.0394  97.9047  78.5234   P.3       1 RES1   0.0000
    22 O       95.9773  99.3503  78.1674   O.2       1 RES1   0.0000
    23 O       95.6563  97.7271  80.0666   O.3       1 RES1   0.0000
    24 O       95.0140  97.0733  77.6164   O.3       1 RES1   0.0000
    25 P       95.2562  97.3389  76.0559   P.3       1 RES1   0.0000
    26 O       95.1643  98.7980  75.7685   O.2       1 RES1   0.0000
    27 O       96.7014  96.8020  75.6278   O.3       1 RES1   0.0000
    28 O       94.1373  96.5709  75.2089   O.3       1 RES1   0.0000
    29 O      101.8580  95.3600  82.7802   O.3       1 RES1   0.0000
    30 O      100.2748  94.2304  84.6623   O.3       1 RES1   0.0000
    31 N       93.4753  91.6276  82.2788   N.pl3     1 RES1   0.0000
    32 H1      93.5214  94.9880  85.2115   H         1 RES1   0.0000
    33 H2      98.4640  92.7674  81.5634   H         1 RES1   0.0000
    34 H3      98.0957  95.1849  84.4306   H         1 RES1   0.0000
    35 H4      99.7070  93.2018  82.9361   H         1 RES1   0.0000
    36 H5     100.3934  94.8396  81.3739   H         1 RES1   0.0000
    37 H6      99.8793  96.9353  83.5654   H         1 RES1   0.0000
    38 H7     100.9935  97.5695  81.2233   H         1 RES1   0.0000
    39 H8      99.5435  98.4846  81.7578   H         1 RES1   0.0000
    40 H9     100.4596  99.0135  78.9373   H         1 RES1   0.0000
    41 H10     95.9807  98.4708  80.5608   H         1 RES1   0.0000
    42 H11     97.3598  97.4494  75.8499   H         1 RES1   0.0000
    43 H12     94.2138  96.8079  74.2922   H         1 RES1   0.0000
    44 H13    101.9833  95.1610  83.7011   H         1 RES1   0.0000
    45 H14     99.7337  93.7300  85.2616   H         1 RES1   0.0000
    46 H15     92.4785  91.4363  82.4562   H         1 RES1   0.0000
    47 H16     93.9951  91.0557  81.5979   H         1 RES1   0.0000
    48 ****    92.4877  93.2229  84.0208   Du        1 RES1   0.0000
    49 ****    95.8343  95.4277  84.7878   Du        1 RES1   0.0000
    50 ****    96.2052  91.5681  81.2910   Du        1 RES1   0.0000
    51 ****    98.1106  95.7030  81.6001   Du        1 RES1   0.0000
    52 ****    97.6956  96.6735  82.8461   Du        1 RES1   0.0000
    53 ****    97.7248 100.0874  79.5920   Du        1 RES1   0.0000
    54 ****    97.5227  99.0076  80.9311   Du        1 RES1   0.0000
    55 ****    99.3857  99.5898  77.9123   Du        1 RES1   0.0000
    56 ****   100.0482  98.1140  77.6892   Du        1 RES1   0.0000
    57 ****    96.8125  99.8399  77.9171   Du        1 RES1   0.0000
    58 ****    95.1004  99.8308  78.1787   Du        1 RES1   0.0000
    59 ****    96.0698  96.8872  80.4182   Du        1 RES1   0.0000
    60 ****    94.6621  97.6733  80.1592   Du        1 RES1   0.0000
    61 ****    95.9578  99.2873  75.4067   Du        1 RES1   0.0000
    62 ****    94.3091  99.2880  75.9374   Du        1 RES1   0.0000
    63 ****    96.7164  96.6366  74.6417   Du        1 RES1   0.0000
    64 ****    96.8965  95.9490  76.1119   Du        1 RES1   0.0000
    65 ****    93.2310  96.8274  75.5447   Du        1 RES1   0.0000
    66 ****    94.2629  95.5839  75.3092   Du        1 RES1   0.0000
    67 ****   102.1291  96.3070  82.6079   Du        1 RES1   0.0000
    68 ****   102.4242  94.7459  82.2304   Du        1 RES1   0.0000
    69 ****   100.3375  95.1739  84.9877   Du        1 RES1   0.0000
    70 ****   101.1893  93.8269  84.6321   Du        1 RES1   0.0000
@<TRIPOS>BOND
     1     1     2   ar
     2     2     3   ar
     3     3     4   ar
     4     4     5   ar
     5     5     6   ar
     6     1     6   ar
     7     5     7   ar
     8     7     8   ar
     9     8     9   ar
    10     4     9   ar
    11     7    10    1
    12    10    11    1
    13    11    12    1
    14    12    13    1
    15    13    14    1
    16    10    14    1
    17    13    15    1
    18    15    16    1
    19    16    17    1
    20    17    18    2
    21    17    19    1
    22    17    20    1
    23    20    21    1
    24    21    22    2
    25    21    23    1
    26    21    24    1
    27    24    25    1
    28    25    26    2
    29    25    27    1
    30    25    28    1
    31    12    29    1
    32    11    30    1
    33     3    31    1
    34     1    32    1
    35     8    33    1
    36    10    34    1
    37    11    35    1
    38    12    36    1
    39    13    37    1
    40    15    38    1
    41    15    39    1
    42    19    40    1
    43    23    41    1
    44    27    42    1
    45    28    43    1
    46    29    44    1
    47    30    45    1
    48    31    46    1
    49    31    47    1
    50     2    48    1
    51     6    49    1
    52     9    50    1
    53    14    51    1
    54    14    52    1
    55    18    53    1
    56    18    54    1
    57    19    55    1
    58    19    56    1
    59    22    57    1
    60    22    58    1
    61    23    59    1
    62    23    60    1
    63    26    61    1
    64    26    62    1
    65    27    63    1
    66    27    64    1
    67    28    65    1
    68    28    66    1
    69    29    67    1
    70    29    68    1
    71    30    69    1
    72    30    70    1
@<TRIPOS>SUBSTRUCTURE
     1 RES1        1 GROUP             0 ****  ****    0  
@<TRIPOS>MOLECULE
48.0715
    70    72     1     0     0
SMALL
NO_CHARGES
****
Generated from the CSD

@<TRIPOS>ATOM
     1 C       97.9590  94.4056  82.1734   C.ar      1 RES1   0.0000
     2 N       98.9511  93.6649  82.7191   N.ar      1 RES1   0.0000
     3 C       99.9632  94.2334  83.4073   C.ar      1 RES1   0.0000
     4 C       99.9443  95.6196  83.5339   C.ar      1 RES1   0.0000
     5 C       98.9175  96.3535  82.9610   C.ar      1 RES1   0.0000
     6 N       97.9256  95.7511  82.2836   N.ar      1 RES1   0.0000
     7 N       99.1698  97.6439  83.2397   N.ar      1 RES1   0.0000
     8 C      100.3007  97.7298  83.9694   C.ar      1 RES1   0.0000
     9 N      100.7787  96.4805  84.1450   N.ar      1 RES1   0.0000
    10 C       98.4028  98.7046  82.8634   C.3       1 RES1   0.0000
    11 C       98.8718  99.3216  81.5250   C.3       1 RES1   0.0000
    12 C       97.6252  99.2110  80.6226   C.3       1 RES1   0.0000
    13 C       96.4948  99.1625  81.6646   C.3       1 RES1   0.0000
    14 O       97.0582  98.2695  82.6271   O.3       1 RES1   0.0000
    15 C       95.1764  98.6008  81.0980   C.3       1 RES1   0.0000
    16 O       94.4664  99.6539  80.4392   O.3       1 RES1   0.0000
    17 P       92.8935  99.8627  80.6407   P.3       1 RES1   0.0000
    18 O       92.1731  99.4166  79.4151   O.2       1 RES1   0.0000
    19 O       92.3986  98.9943  81.8901   O.3       1 RES1   0.0000
    20 O       92.5931 101.4136  80.9011   O.3       1 RES1   0.0000
    21 P       93.0455 102.3066  79.6509   P.3       1 RES1   0.0000
    22 O       92.0895 102.1104  78.5249   O.2       1 RES1   0.0000
    23 O       94.5041 101.8391  79.1889   O.3       1 RES1   0.0000
    24 O       93.0850 103.8514  80.0722   O.3       1 RES1   0.0000
    25 P       93.5495 104.7837  78.8559   P.3       1 RES1   0.0000
    26 O       92.5521 104.7125  77.7513   O.2       1 RES1   0.0000
    27 O       93.6885 106.2990  79.3507   O.3       1 RES1   0.0000
    28 O       94.9653 104.2760  78.3113   O.3       1 RES1   0.0000
    29 O       97.4763 100.3110  79.7174   O.3       1 RES1   0.0000
    30 O       99.2207 100.6932  81.7511   O.3       1 RES1   0.0000
    31 N      100.9535  93.4937  83.9511   N.pl3     1 RES1   0.0000
    32 H1      97.1662  93.9035  81.6308   H         1 RES1   0.0000
    33 H2     100.7485  98.6413  84.3490   H         1 RES1   0.0000
    34 H3      98.3930  99.4848  83.6400   H         1 RES1   0.0000
    35 H4      99.7261  98.7769  81.0935   H         1 RES1   0.0000
    36 H5      97.6545  98.2541  80.0787   H         1 RES1   0.0000
    37 H6      96.3460 100.1595  82.1075   H         1 RES1   0.0000
    38 H7      94.5622  98.1828  81.9095   H         1 RES1   0.0000
    39 H8      95.4086  97.8087  80.3703   H         1 RES1   0.0000
    40 H9      92.2712  99.5632  82.6401   H         1 RES1   0.0000
    41 H10     94.5053 100.8997  79.0476   H         1 RES1   0.0000
    42 H11     93.7357 106.8763  78.5980   H         1 RES1   0.0000
    43 H12     95.4970 103.9758  79.0391   H         1 RES1   0.0000
    44 H13     97.0779 101.0525  80.1591   H         1 RES1   0.0000
    45 H14    100.1638 100.8016  81.7863   H         1 RES1   0.0000
    46 H15    100.9510  92.4686  83.8469   H         1 RES1   0.0000
    47 H16    101.7130  93.9555  84.4716   H         1 RES1   0.0000
    48 ****    98.9339  92.6710  82.6096   Du        1 RES1   0.0000
    49 ****    97.1849  96.2832  81.8733   Du        1 RES1   0.0000
    50 ****   101.6104  96.2361  84.6436   Du        1 RES1   0.0000
    51 ****    97.0569  97.3351  82.2711   Du        1 RES1   0.0000
    52 ****    96.5318  98.3032  83.4767   Du        1 RES1   0.0000
    53 ****    92.4033  98.5409  78.9907   Du        1 RES1   0.0000
    54 ****    91.4594  99.9929  79.0170   Du        1 RES1   0.0000
    55 ****    93.0870  98.3029  82.1092   Du        1 RES1   0.0000
    56 ****    91.5351  98.5444  81.6623   Du        1 RES1   0.0000
    57 ****    92.4088 101.7244  77.6594   Du        1 RES1   0.0000
    58 ****    91.1287 102.3648  78.6346   Du        1 RES1   0.0000
    59 ****    95.1689 102.0703  79.8993   Du        1 RES1   0.0000
    60 ****    94.7496 102.3044  78.3385   Du        1 RES1   0.0000
    61 ****    92.8070 105.0003  76.8282   Du        1 RES1   0.0000
    62 ****    91.6278 104.3768  77.9331   Du        1 RES1   0.0000
    63 ****    94.5203 106.3958  79.8972   Du        1 RES1   0.0000
    64 ****    92.8939 106.5418  79.9072   Du        1 RES1   0.0000
    65 ****    95.4321 105.0280  77.8458   Du        1 RES1   0.0000
    66 ****    94.8243 103.5227  77.6690   Du        1 RES1   0.0000
    67 ****    96.8953 100.0321  78.9528   Du        1 RES1   0.0000
    68 ****    98.3761 100.5778  79.3723   Du        1 RES1   0.0000
    69 ****    98.8240 100.9933  82.6186   Du        1 RES1   0.0000
    70 ****    98.8546 101.2513  81.0064   Du        1 RES1   0.0000
@<TRIPOS>BOND
     1     1     2   ar
     2     2     3   ar
     3     3     4   ar
     4     4     5   ar
     5     5     6   ar
     6     1     6   ar
     7     5     7   ar
     8     7     8   ar
     9     8     9   ar
    10     4     9   ar
    11     7    10    1
    12    10    11    1
    13    11    12    1
    14    12    13    1
    15    13    14    1
    16    10    14    1
    17    13    15    1
    18    15    16    1
    19    16    17    1
    20    17    18    2
    21    17    19    1
    22    17    20    1
    23    20    21    1
    24    21    22    2
    25    21    23    1
    26    21    24    1
    27    24    25    1
    28    25    26    2
    29    25    27    1
    30    25    28    1
    31    12    29    1
    32    11    30    1
    33     3    31    1
    34     1    32    1
    35     8    33    1
    36    10    34    1
    37    11    35    1
    38    12    36    1
    39    13    37    1
    40    15    38    1
    41    15    39    1
    42    19    40    1
    43    23    41    1
    44    27    42    1
    45    28    43    1
    46    29    44    1
    47    30    45    1
    48    31    46    1
    49    31    47    1
    50     2    48    1
    51     6    49    1
    52     9    50    1
    53    14    51    1
    54    14    52    1
    55    18    53    1
    56    18    54    1
    57    19    55    1
    58    19    56    1
    59    22    57    1
    60    22    58    1
    61    23    59    1
    62    23    60    1
    63    26    61    1
    64    26    62    1
    65    27    63    1
    66    27    64    1
    67    28    65    1
    68    28    66    1
    69    29    67    1
    70    29    68    1
    71    30    69    1
    72    30    70    1
@<TRIPOS>SUBSTRUCTURE
     1 RES1        1 GROUP             0 ****  ****    0  
@<TRIPOS>MOLECULE
48.0115
    70    72     1     0     0
SMALL
NO_CHARGES
****
Generated from the CSD

@<TRIPOS>ATOM
     1 C       94.1556  94.1245  83.7785   C.ar      1 RES1   0.0000
     2 N       94.3778  92.8366  84.1286   N.ar      1 RES1   0.0000
     3 C       95.6036  92.2791  84.0383   C.ar      1 RES1   0.0000
     4 C       96.6348  93.0876  83.5684   C.ar      1 RES1   0.0000
     5 C       96.3775  94.4024  83.2132   C.ar      1 RES1   0.0000
     6 N       95.1429  94.9226  83.3183   N.ar      1 RES1   0.0000
     7 N       97.5457  94.9204  82.7968   N.ar      1 RES1   0.0000
     8 C       98.5096  93.9822  82.8939   C.ar      1 RES1   0.0000
     9 N       97.9440  92.8516  83.3652   N.ar      1 RES1   0.0000
    10 C       97.7404  96.1952  82.3588   C.3       1 RES1   0.0000
    11 C       99.1101  96.3732  81.6631   C.3       1 RES1   0.0000
    12 C       98.7339  96.8702  80.2518   C.3       1 RES1   0.0000
    13 C       97.3538  97.5004  80.5056   C.3       1 RES1   0.0000
    14 O       96.7654  96.5176  81.3594   O.3       1 RES1   0.0000
    15 C       96.5261  97.6776  79.2179   C.3       1 RES1   0.0000
    16 O       95.1831  98.0219  79.5710   O.3       1 RES1   0.0000
    17 P       94.7549  99.5317  79.8799   P.3       1 RES1   0.0000
    18 O       94.3198  99.6430  81.3005   O.2       1 RES1   0.0000
    19 O       96.0052 100.4990  79.6329   O.3       1 RES1   0.0000
    20 O       93.5450  99.9477  78.9174   O.3       1 RES1   0.0000
    21 P       93.0720 101.4511  79.2021   P.3       1 RES1   0.0000
    22 O       91.8833 101.7685  78.3615   O.2       1 RES1   0.0000
    23 O       94.2661 102.4446  78.8192   O.3       1 RES1   0.0000
    24 O       92.7072 101.6220  80.7523   O.3       1 RES1   0.0000
    25 P       91.9832 103.0215  81.0380   P.3       1 RES1   0.0000
    26 O       91.9616 103.8453  79.7967   O.2       1 RES1   0.0000
    27 O       90.4836 102.7696  81.5358   O.3       1 RES1   0.0000
    28 O       92.7885 103.8116  82.1722   O.3       1 RES1   0.0000
    29 O       99.6658  97.8143  79.7117   O.3       1 RES1   0.0000
    30 O       99.8583  97.3677  82.3740   O.3       1 RES1   0.0000
    31 N       95.8246  90.9935  84.3871   N.pl3     1 RES1   0.0000
    32 H1      93.1539  94.5284  83.8703   H         1 RES1   0.0000
    33 H2      99.5552  94.1117  82.6386   H         1 RES1   0.0000
    34 H3      97.6552  96.9179  83.1849   H         1 RES1   0.0000
    35 H4      99.6774  95.4305  81.6159   H         1 RES1   0.0000
    36 H5      98.6163  96.0046  79.5815   H         1 RES1   0.0000
    37 H6      97.4673  98.4555  81.0416   H         1 RES1   0.0000
    38 H7      96.5342  96.7472  78.6305   H         1 RES1   0.0000
    39 H8      96.9644  98.4909  78.6201   H         1 RES1   0.0000
    40 H9      95.9505 101.2431  80.2209   H         1 RES1   0.0000
    41 H10     94.9996 102.2984  79.4050   H         1 RES1   0.0000
    42 H11     90.0781 103.5995  81.7565   H         1 RES1   0.0000
    43 H12     93.6684 103.4600  82.2410   H         1 RES1   0.0000
    44 H13     99.6968  97.7450  78.7642   H         1 RES1   0.0000
    45 H14     99.3992  98.1994  82.3771   H         1 RES1   0.0000
    46 H15     95.0487  90.4102  84.7327   H         1 RES1   0.0000
    47 H16     96.7712  90.5953  84.3079   H         1 RES1   0.0000
    48 ****    93.6144  92.2837  84.4628   Du        1 RES1   0.0000
    49 ****    94.9609  95.8723  83.0634   Du        1 RES1   0.0000
    50 ****    98.4166  91.9867  83.5345   Du        1 RES1   0.0000
    51 ****    96.5305  95.7008  80.8325   Du        1 RES1   0.0000
    52 ****    95.9410  96.8853  81.7896   Du        1 RES1   0.0000
    53 ****    94.5505 100.4581  81.8318   Du        1 RES1   0.0000
    54 ****    93.7970  98.9024  81.7228   Du        1 RES1   0.0000
    55 ****    95.9960 100.8208  78.6862   Du        1 RES1   0.0000
    56 ****    96.8534  99.9985  79.8066   Du        1 RES1   0.0000
    57 ****    91.4035 102.6375  78.4818   Du        1 RES1   0.0000
    58 ****    91.5654 101.1124  77.6770   Du        1 RES1   0.0000
    59 ****    93.9536 103.3906  78.9060   Du        1 RES1   0.0000
    60 ****    94.5530 102.2735  77.8766   Du        1 RES1   0.0000
    61 ****    92.4108 103.5121  78.9676   Du        1 RES1   0.0000
    62 ****    91.4980 104.7313  79.7926   Du        1 RES1   0.0000
    63 ****    90.4955 102.1798  82.3433   Du        1 RES1   0.0000
    64 ****    89.9609 102.3268  80.8073   Du        1 RES1   0.0000
    65 ****    92.3185 103.7067  83.0486   Du        1 RES1   0.0000
    66 ****    92.8352 104.7814  81.9330   Du        1 RES1   0.0000
    67 ****   100.5749  97.6304  80.0854   Du        1 RES1   0.0000
    68 ****    99.3820  98.7391  79.9651   Du        1 RES1   0.0000
    69 ****   100.7476  97.4863  81.9323   Du        1 RES1   0.0000
    70 ****    99.9925  97.0643  83.3174   Du        1 RES1   0.0000
@<TRIPOS>BOND
     1     1     2   ar
     2     2     3   ar
     3     3     4   ar
     4     4     5   ar
     5     5     6   ar
     6     1     6   ar
     7     5     7   ar
     8     7     8   ar
     9     8     9   ar
    10     4     9   ar
    11     7    10    1
    12    10    11    1
    13    11    12    1
    14    12    13    1
    15    13    14    1
    16    10    14    1
    17    13    15    1
    18    15    16    1
    19    16    17    1
    20    17    18    2
    21    17    19    1
    22    17    20    1
    23    20    21    1
    24    21    22    2
    25    21    23    1
    26    21    24    1
    27    24    25    1
    28    25    26    2
    29    25    27    1
    30    25    28    1
    31    12    29    1
    32    11    30    1
    33     3    31    1
    34     1    32    1
    35     8    33    1
    36    10    34    1
    37    11    35    1
    38    12    36    1
    39    13    37    1
    40    15    38    1
    41    15    39    1
    42    19    40    1
    43    23    41    1
    44    27    42    1
    45    28    43    1
    46    29    44    1
    47    30    45    1
    48    31    46    1
    49    31    47    1
    50     2    48    1
    51     6    49    1
    52     9    50    1
    53    14    51    1
    54    14    52    1
    55    18    53    1
    56    18    54    1
    57    19    55    1
    58    19    56    1
    59    22    57    1
    60    22    58    1
    61    23    59    1
    62    23    60    1
    63    26    61    1
    64    26    62    1
    65    27    63    1
    66    27    64    1
    67    28    65    1
    68    28    66    1
    69    29    67    1
    70    29    68    1
    71    30    69    1
    72    30    70    1
@<TRIPOS>SUBSTRUCTURE
     1 RES1        1 GROUP             0 ****  ****    0  
@<TRIPOS>MOLECULE
47.9186
    70    72     1     0     0
SMALL
NO_CHARGES
****
Generated from the CSD

@<TRIPOS>ATOM
     1 C       98.0203  93.9161  82.2037   C.ar      1 RES1   0.0000
     2 N       99.1386  93.4160  82.7782   N.ar      1 RES1   0.0000
     3 C      100.0674  94.2193  83.3381   C.ar      1 RES1   0.0000
     4 C       99.8261  95.5898  83.3008   C.ar      1 RES1   0.0000
     5 C       98.6737  96.0743  82.7021   C.ar      1 RES1   0.0000
     6 N       97.7709  95.2424  82.1558   N.ar      1 RES1   0.0000
     7 N       98.7209  97.4130  82.8121   N.ar      1 RES1   0.0000
     8 C       99.8472  97.7676  83.4637   C.ar      1 RES1   0.0000
     9 N      100.5291  96.6416  83.7594   N.ar      1 RES1   0.0000
    10 C       97.7780  98.2833  82.3555   C.3       1 RES1   0.0000
    11 C       98.1297  98.8495  80.9600   C.3       1 RES1   0.0000
    12 C       96.9221  98.4396  80.0916   C.3       1 RES1   0.0000
    13 C       95.8186  98.2870  81.1523   C.3       1 RES1   0.0000
    14 O       96.5316  97.5983  82.1811   O.3       1 RES1   0.0000
    15 C       94.6202  97.4526  80.6597   C.3       1 RES1   0.0000
    16 O       93.4589  97.8158  81.4123   O.3       1 RES1   0.0000
    17 P       92.4850  98.9936  80.9409   P.3       1 RES1   0.0000
    18 O       92.5229  99.1037  79.4555   O.2       1 RES1   0.0000
    19 O       90.9905  98.6658  81.4085   O.3       1 RES1   0.0000
    20 O       92.9693 100.3746  81.5904   O.3       1 RES1   0.0000
    21 P       92.0440 101.5920  81.1141   P.3       1 RES1   0.0000
    22 O       92.5239 102.8576  81.7370   O.2       1 RES1   0.0000
    23 O       90.5423 101.3097  81.5884   O.3       1 RES1   0.0000
    24 O       92.0886 101.7165  79.5179   O.3       1 RES1   0.0000
    25 P       93.5333 102.1746  79.0012   P.3       1 RES1   0.0000
    26 O       93.5537 102.2072  77.5118   O.2       1 RES1   0.0000
    27 O       93.8817 103.6290  79.5703   O.3       1 RES1   0.0000
    28 O       94.6331 101.1319  79.5134   O.3       1 RES1   0.0000
    29 O       96.5802  99.4095  79.0947   O.3       1 RES1   0.0000
    30 O       98.2302 100.2759  81.0572   O.3       1 RES1   0.0000
    31 N      101.1837  93.7198  83.9106   N.pl3     1 RES1   0.0000
    32 H1      97.3020  93.2307  81.7684   H         1 RES1   0.0000
    33 H2     100.1526  98.7788  83.7079   H         1 RES1   0.0000
    34 H3      97.6304  99.1166  83.0596   H         1 RES1   0.0000
    35 H4      99.0668  98.4272  80.5647   H         1 RES1   0.0000
    36 H5      97.1202  97.4575  79.6348   H         1 RES1   0.0000
    37 H6      95.4957  99.2781  81.5071   H         1 RES1   0.0000
    38 H7      94.8287  96.3793  80.7834   H         1 RES1   0.0000
    39 H8      94.4461  97.6706  79.5953   H         1 RES1   0.0000
    40 H9      90.9879  98.4549  82.3348   H         1 RES1   0.0000
    41 H10     90.0122 101.0727  80.8366   H         1 RES1   0.0000
    42 H11     94.8150 103.6912  79.7343   H         1 RES1   0.0000
    43 H12     95.3221 101.5967  79.9736   H         1 RES1   0.0000
    44 H13     97.3454  99.6402  78.5801   H         1 RES1   0.0000
    45 H14     99.0611 100.5813  80.7124   H         1 RES1   0.0000
    46 H15    101.3453  92.7023  83.9286   H         1 RES1   0.0000
    47 H16    101.8749  94.3574  84.3306   H         1 RES1   0.0000
    48 ****    99.2806  92.4262  82.7881   Du        1 RES1   0.0000
    49 ****    96.9393  95.5949  81.7266   Du        1 RES1   0.0000
    50 ****   101.4064  96.5965  84.2373   Du        1 RES1   0.0000
    51 ****    96.6957  96.6499  81.9098   Du        1 RES1   0.0000
    52 ****    96.0079  97.6154  83.0328   Du        1 RES1   0.0000
    53 ****    92.1842  99.9305  79.0065   Du        1 RES1   0.0000
    54 ****    92.8871  98.3506  78.9075   Du        1 RES1   0.0000
    55 ****    90.6417  97.8863  80.8882   Du        1 RES1   0.0000
    56 ****    90.4080  99.4623  81.2463   Du        1 RES1   0.0000
    57 ****    93.4089 103.2408  81.4727   Du        1 RES1   0.0000
    58 ****    91.9609 103.3239  82.4194   Du        1 RES1   0.0000
    59 ****    90.1671 102.1328  82.0148   Du        1 RES1   0.0000
    60 ****    90.5371 100.5597  82.2499   Du        1 RES1   0.0000
    61 ****    93.9154 103.0078  77.0340   Du        1 RES1   0.0000
    62 ****    93.2057 101.4284  76.9898   Du        1 RES1   0.0000
    63 ****    93.3828 103.7809  80.4235   Du        1 RES1   0.0000
    64 ****    93.6146 104.3214  78.9001   Du        1 RES1   0.0000
    65 ****    95.0236 100.6481  78.7301   Du        1 RES1   0.0000
    66 ****    94.2049 100.4733  80.1322   Du        1 RES1   0.0000
    67 ****    96.2243 100.2301  79.5419   Du        1 RES1   0.0000
    68 ****    95.8799  99.0285  78.4910   Du        1 RES1   0.0000
    69 ****    98.1556 100.5448  82.0175   Du        1 RES1   0.0000
    70 ****    97.4860 100.6930  80.5355   Du        1 RES1   0.0000
@<TRIPOS>BOND
     1     1     2   ar
     2     2     3   ar
     3     3     4   ar
     4     4     5   ar
     5     5     6   ar
     6     1     6   ar
     7     5     7   ar
     8     7     8   ar
     9     8     9   ar
    10     4     9   ar
    11     7    10    1
    12    10    11    1
    13    11    12    1
    14    12    13    1
    15    13    14    1
    16    10    14    1
    17    13    15    1
    18    15    16    1
    19    16    17    1
    20    17    18    2
    21    17    19    1
    22    17    20    1
    23    20    21    1
    24    21    22    2
    25    21    23    1
    26    21    24    1
    27    24    25    1
    28    25    26    2
    29    25    27    1
    30    25    28    1
    31    12    29    1
    32    11    30    1
    33     3    31    1
    34     1    32    1
    35     8    33    1
    36    10    34    1
    37    11    35    1
    38    12    36    1
    39    13    37    1
    40    15    38    1
    41    15    39    1
    42    19    40    1
    43    23    41    1
    44    27    42    1
    45    28    43    1
    46    29    44    1
    47    30    45    1
    48    31    46    1
    49    31    47    1
    50     2    48    1
    51     6    49    1
    52     9    50    1
    53    14    51    1
    54    14    52    1
    55    18    53    1
    56    18    54    1
    57    19    55    1
    58    19    56    1
    59    22    57    1
    60    22    58    1
    61    23    59    1
    62    23    60    1
    63    26    61    1
    64    26    62    1
    65    27    63    1
    66    27    64    1
    67    28    65    1
    68    28    66    1
    69    29    67    1
    70    29    68    1
    71    30    69    1
    72    30    70    1
@<TRIPOS>SUBSTRUCTURE
     1 RES1        1 GROUP             0 ****  ****    0  
@<TRIPOS>MOLECULE
47.5923
    70    72     1     0     0
SMALL
NO_CHARGES
****
Generated from the CSD

@<TRIPOS>ATOM
     1 C       99.7395  93.6800  81.6817   C.ar      1 RES1   0.0000
     2 N      100.0530  93.0606  82.8430   N.ar      1 RES1   0.0000
     3 C      100.2521  93.7532  83.9841   C.ar      1 RES1   0.0000
     4 C      100.1206  95.1374  83.9170   C.ar      1 RES1   0.0000
     5 C       99.8025  95.7455  82.7128   C.ar      1 RES1   0.0000
     6 N       99.6104  95.0216  81.5971   N.ar      1 RES1   0.0000
     7 N       99.7525  97.0667  82.9544   N.ar      1 RES1   0.0000
     8 C      100.0141  97.2920  84.2581   C.ar      1 RES1   0.0000
     9 N      100.2456  96.1009  84.8481   N.ar      1 RES1   0.0000
    10 C       99.4677  98.0335  82.0384   C.3       1 RES1   0.0000
    11 C      100.5849  98.1854  80.9798   C.3       1 RES1   0.0000
    12 C       99.8535  97.9255  79.6464   C.3       1 RES1   0.0000
    13 C       98.4044  98.2862  80.0154   C.3       1 RES1   0.0000
    14 O       98.2953  97.6695  81.2995   O.3       1 RES1   0.0000
    15 C       97.3694  97.7022  79.0344   C.3       1 RES1   0.0000
    16 O       96.4726  98.7411  78.6302   O.3       1 RES1   0.0000
    17 P       96.9459  99.9403  77.6836   P.3       1 RES1   0.0000
    18 O       98.1221 100.6202  78.2954   O.2       1 RES1   0.0000
    19 O       97.3588  99.3556  76.2527   O.3       1 RES1   0.0000
    20 O       95.7488 100.9906  77.5190   O.3       1 RES1   0.0000
    21 P       96.2021 102.2485  76.6373   P.3       1 RES1   0.0000
    22 O       97.6693 102.1801  76.3865   O.2       1 RES1   0.0000
    23 O       95.8696 103.5877  77.4471   O.3       1 RES1   0.0000
    24 O       95.4087 102.2513  75.2459   O.3       1 RES1   0.0000
    25 P       94.0639 101.3863  75.3310   P.3       1 RES1   0.0000
    26 O       94.3891  99.9737  75.6756   O.2       1 RES1   0.0000
    27 O       93.0914 101.9958  76.4458   O.3       1 RES1   0.0000
    28 O       93.3241 101.4182  73.9129   O.3       1 RES1   0.0000
    29 O      100.3462  98.7193  78.5608   O.3       1 RES1   0.0000
    30 O      101.0883  99.5262  81.0353   O.3       1 RES1   0.0000
    31 N      100.5658  93.1345  85.1427   N.pl3     1 RES1   0.0000
    32 H1      99.5871  93.0808  80.7913   H         1 RES1   0.0000
    33 H2     100.0352  98.2590  84.7477   H         1 RES1   0.0000
    34 H3      99.2936  99.0053  82.5256   H         1 RES1   0.0000
    35 H4     101.4029  97.4642  81.1332   H         1 RES1   0.0000
    36 H5      99.9071  96.8523  79.4062   H         1 RES1   0.0000
    37 H6      98.2978  99.3785  80.1043   H         1 RES1   0.0000
    38 H7      96.8087  96.8867  79.5153   H         1 RES1   0.0000
    39 H8      97.8953  97.3119  78.1501   H         1 RES1   0.0000
    40 H9      97.9981  98.6623  76.3668   H         1 RES1   0.0000
    41 H10     96.2185 103.5196  78.3281   H         1 RES1   0.0000
    42 H11     93.0751 102.9424  76.3707   H         1 RES1   0.0000
    43 H12     92.3995 101.5952  74.0405   H         1 RES1   0.0000
    44 H13    100.1928  98.2798  77.7321   H         1 RES1   0.0000
    45 H14    101.5318  99.7553  80.2270   H         1 RES1   0.0000
    46 H15    100.6591  92.1088  85.1731   H         1 RES1   0.0000
    47 H16    100.7116  93.6894  85.9982   H         1 RES1   0.0000
    48 ****   100.1393  92.0644  82.8562   Du        1 RES1   0.0000
    49 ****    99.3788  95.4630  80.7303   Du        1 RES1   0.0000
    50 ****   100.4714  95.9586  85.8118   Du        1 RES1   0.0000
    51 ****    98.2464  96.6756  81.2004   Du        1 RES1   0.0000
    52 ****    97.4766  97.9982  81.7702   Du        1 RES1   0.0000
    53 ****    98.5536 101.3911  77.8268   Du        1 RES1   0.0000
    54 ****    98.4800 100.3057  79.1746   Du        1 RES1   0.0000
    55 ****    97.7545 100.0858  75.6957   Du        1 RES1   0.0000
    56 ****    96.5481  98.9897  75.7955   Du        1 RES1   0.0000
    57 ****    98.2811 102.8460  76.8135   Du        1 RES1   0.0000
    58 ****    98.0422 101.4683  75.7913   Du        1 RES1   0.0000
    59 ****    94.8786 103.7142  77.4897   Du        1 RES1   0.0000
    60 ****    96.2858 104.3698  76.9832   Du        1 RES1   0.0000
    61 ****    94.9224  99.7693  76.4964   Du        1 RES1   0.0000
    62 ****    94.0741  99.2299  75.0860   Du        1 RES1   0.0000
    63 ****    93.4235 101.7395  77.3535   Du        1 RES1   0.0000
    64 ****    92.1677 101.6355  76.3149   Du        1 RES1   0.0000
    65 ****    93.4343 100.5335  73.4599   Du        1 RES1   0.0000
    66 ****    93.7252 102.1362  73.3442   Du        1 RES1   0.0000
    67 ****   101.3283  98.8659  78.6791   Du        1 RES1   0.0000
    68 ****    99.8755  99.6016  78.5578   Du        1 RES1   0.0000
    69 ****   101.7332  99.6026  81.7957   Du        1 RES1   0.0000
    70 ****   100.3257 100.1566  81.1803   Du        1 RES1   0.0000
@<TRIPOS>BOND
     1     1     2   ar
     2     2     3   ar
     3     3     4   ar
     4     4     5   ar
     5     5     6   ar
     6     1     6   ar
     7     5     7   ar
     8     7     8   ar
     9     8     9   ar
    10     4     9   ar
    11     7    10    1
    12    10    11    1
    13    11    12    1
    14    12    13    1
    15    13    14    1
    16    10    14    1
    17    13    15    1
    18    15    16    1
    19    16    17    1
    20    17    18    2
    21    17    19    1
    22    17    20    1
    23    20    21    1
    24    21    22    2
    25    21    23    1
    26    21    24    1
    27    24    25    1
    28    25    26    2
    29    25    27    1
    30    25    28    1
    31    12    29    1
    32    11    30    1
    33     3    31    1
    34     1    32    1
    35     8    33    1
    36    10    34    1
    37    11    35    1
    38    12    36    1
    39    13    37    1
    40    15    38    1
    41    15    39    1
    42    19    40    1
    43    23    41    1
    44    27    42    1
    45    28    43    1
    46    29    44    1
    47    30    45    1
    48    31    46    1
    49    31    47    1
    50     2    48    1
    51     6    49    1
    52     9    50    1
    53    14    51    1
    54    14    52    1
    55    18    53    1
    56    18    54    1
    57    19    55    1
    58    19    56    1
    59    22    57    1
    60    22    58    1
    61    23    59    1
    62    23    60    1
    63    26    61    1
    64    26    62    1
    65    27    63    1
    66    27    64    1
    67    28    65    1
    68    28    66    1
    69    29    67    1
    70    29    68    1
    71    30    69    1
    72    30    70    1
@<TRIPOS>SUBSTRUCTURE
     1 RES1        1 GROUP             0 ****  ****    0  
@<TRIPOS>MOLECULE
45.6898
    70    72     1     0     0
SMALL
NO_CHARGES
****
Generated from the CSD

@<TRIPOS>ATOM
     1 C      105.1148 100.0448  81.9538   C.ar      1 RES1   0.0000
     2 N      105.7530 101.0015  81.2410   N.ar      1 RES1   0.0000
     3 C      105.2014 101.5494  80.1378   C.ar      1 RES1   0.0000
     4 C      103.9429 101.0882  79.7621   C.ar      1 RES1   0.0000
     5 C      103.3142 100.1043  80.5089   C.ar      1 RES1   0.0000
     6 N      103.8952  99.5833  81.6029   N.ar      1 RES1   0.0000
     7 N      102.1367  99.8632  79.9076   N.ar      1 RES1   0.0000
     8 C      102.0125 100.6667  78.8316   C.ar      1 RES1   0.0000
     9 N      103.1299 101.4174  78.7415   N.ar      1 RES1   0.0000
    10 C      101.2014  98.9632  80.3201   C.3       1 RES1   0.0000
    11 C      100.3894  99.4756  81.5324   C.3       1 RES1   0.0000
    12 C       98.9323  99.4483  81.0259   C.3       1 RES1   0.0000
    13 C       99.0125  98.3859  79.9164   C.3       1 RES1   0.0000
    14 O      100.2370  98.7571  79.2806   O.3       1 RES1   0.0000
    15 C       97.8339  98.4583  78.9262   C.3       1 RES1   0.0000
    16 O       96.6849  97.8509  79.5244   O.3       1 RES1   0.0000
    17 P       95.2092  98.1085  78.9639   P.3       1 RES1   0.0000
    18 O       95.2665  98.3034  77.4878   O.2       1 RES1   0.0000
    19 O       94.2876  96.8430  79.2944   O.3       1 RES1   0.0000
    20 O       94.6017  99.4203  79.6518   O.3       1 RES1   0.0000
    21 P       93.6172  99.0373  80.8556   P.3       1 RES1   0.0000
    22 O       93.0993 100.2808  81.4925   O.2       1 RES1   0.0000
    23 O       94.4382  98.1947  81.9400   O.3       1 RES1   0.0000
    24 O       92.3985  98.1574  80.3023   O.3       1 RES1   0.0000
    25 P       91.0013  98.9259  80.4480   P.3       1 RES1   0.0000
    26 O       89.9070  98.1081  79.8534   O.2       1 RES1   0.0000
    27 O       90.6845  99.1964  81.9929   O.3       1 RES1   0.0000
    28 O       91.0838 100.3242  79.6752   O.3       1 RES1   0.0000
    29 O       97.9822  99.0982  82.0389   O.3       1 RES1   0.0000
    30 O      100.5701  98.5629  82.6226   O.3       1 RES1   0.0000
    31 N      105.8391 102.5036  79.4263   N.pl3     1 RES1   0.0000
    32 H1     105.5975  99.6360  82.8341   H         1 RES1   0.0000
    33 H2     101.1649 100.7043  78.1566   H         1 RES1   0.0000
    34 H3     101.6631  97.9965  80.5737   H         1 RES1   0.0000
    35 H4     100.6883 100.4921  81.8326   H         1 RES1   0.0000
    36 H5      98.6866 100.4221  80.5745   H         1 RES1   0.0000
    37 H6      99.0998  97.3820  80.3600   H         1 RES1   0.0000
    38 H7      98.0912  97.9380  77.9914   H         1 RES1   0.0000
    39 H8      97.6145  99.5143  78.7080   H         1 RES1   0.0000
    40 H9      94.8194  96.1564  79.6794   H         1 RES1   0.0000
    41 H10     95.2287  98.6663  82.1748   H         1 RES1   0.0000
    42 H11     91.1531  98.5675  82.5285   H         1 RES1   0.0000
    43 H12     90.6237 100.2573  78.8467   H         1 RES1   0.0000
    44 H13     97.6021  99.8806  82.4220   H         1 RES1   0.0000
    45 H14    101.3871  98.7341  83.0761   H         1 RES1   0.0000
    46 H15    106.7705 102.8325  79.7196   H         1 RES1   0.0000
    47 H16    105.3931 102.9039  78.5886   H         1 RES1   0.0000
    48 ****   106.6562 101.3104  81.5391   Du        1 RES1   0.0000
    49 ****   103.4381  98.8752  82.1410   Du        1 RES1   0.0000
    50 ****   103.3212 102.1010  78.0371   Du        1 RES1   0.0000
    51 ****   100.1107  99.5996  78.7569   Du        1 RES1   0.0000
    52 ****   100.5417  98.0270  78.6689   Du        1 RES1   0.0000
    53 ****    94.4219  98.4244  76.9663   Du        1 RES1   0.0000
    54 ****    96.1496  98.3133  77.0187   Du        1 RES1   0.0000
    55 ****    93.8681  96.5067  78.4513   Du        1 RES1   0.0000
    56 ****    93.5717  97.1113  79.9390   Du        1 RES1   0.0000
    57 ****    93.7376 100.9639  81.8474   Du        1 RES1   0.0000
    58 ****    92.1135 100.4323  81.5649   Du        1 RES1   0.0000
    59 ****    94.6828  97.3047  81.5552   Du        1 RES1   0.0000
    60 ****    93.8746  98.0618  82.7553   Du        1 RES1   0.0000
    61 ****    88.9841  98.1538  80.2360   Du        1 RES1   0.0000
    62 ****    90.0953  97.5134  79.0718   Du        1 RES1   0.0000
    63 ****    89.7018  99.1029  82.1526   Du        1 RES1   0.0000
    64 ****    90.9750 100.1221  82.2352   Du        1 RES1   0.0000
    65 ****    92.0419 100.5553  79.5063   Du        1 RES1   0.0000
    66 ****    90.6620 101.0386  80.2335   Du        1 RES1   0.0000
    67 ****    98.4419  98.5713  82.7538   Du        1 RES1   0.0000
    68 ****    97.2557  98.5445  81.6318   Du        1 RES1   0.0000
    69 ****   100.5820  97.6278  82.2683   Du        1 RES1   0.0000
    70 ****    99.8110  98.6661  83.2654   Du        1 RES1   0.0000
@<TRIPOS>BOND
     1     1     2   ar
     2     2     3   ar
     3     3     4   ar
     4     4     5   ar
     5     5     6   ar
     6     1     6   ar
     7     5     7   ar
     8     7     8   ar
     9     8     9   ar
    10     4     9   ar
    11     7    10    1
    12    10    11    1
    13    11    12    1
    14    12    13    1
    15    13    14    1
    16    10    14    1
    17    13    15    1
    18    15    16    1
    19    16    17    1
    20    17    18    2
    21    17    19    1
    22    17    20    1
    23    20    21    1
    24    21    22    2
    25    21    23    1
    26    21    24    1
    27    24    25    1
    28    25    26    2
    29    25    27    1
    30    25    28    1
    31    12    29    1
    32    11    30    1
    33     3    31    1
    34     1    32    1
    35     8    33    1
    36    10    34    1
    37    11    35    1
    38    12    36    1
    39    13    37    1
    40    15    38    1
    41    15    39    1
    42    19    40    1
    43    23    41    1
    44    27    42    1
    45    28    43    1
    46    29    44    1
    47    30    45    1
    48    31    46    1
    49    31    47    1
    50     2    48    1
    51     6    49    1
    52     9    50    1
    53    14    51    1
    54    14    52    1
    55    18    53    1
    56    18    54    1
    57    19    55    1
    58    19    56    1
    59    22    57    1
    60    22    58    1
    61    23    59    1
    62    23    60    1
    63    26    61    1
    64    26    62    1
    65    27    63    1
    66    27    64    1
    67    28    65    1
    68    28    66    1
    69    29    67    1
    70    29    68    1
    71    30    69    1
    72    30    70    1
@<TRIPOS>SUBSTRUCTURE
     1 RES1        1 GROUP             0 ****  ****    0  
@<TRIPOS>MOLECULE
44.9622
    70    72     1     0     0
SMALL
NO_CHARGES
****
Generated from the CSD

@<TRIPOS>ATOM
     1 C      105.3863 100.0729  82.0843   C.ar      1 RES1   0.0000
     2 N      105.8871 101.0410  81.2826   N.ar      1 RES1   0.0000
     3 C      105.1950 101.5128  80.2244   C.ar      1 RES1   0.0000
     4 C      103.9387 100.9605  79.9909   C.ar      1 RES1   0.0000
     5 C      103.4525  99.9671  80.8263   C.ar      1 RES1   0.0000
     6 N      104.1711  99.5237  81.8717   N.ar      1 RES1   0.0000
     7 N      102.2400  99.6313  80.3537   N.ar      1 RES1   0.0000
     8 C      101.9582 100.3857  79.2720   C.ar      1 RES1   0.0000
     9 N      103.0096 101.2008  79.0476   N.ar      1 RES1   0.0000
    10 C      101.4109  98.6903  80.8849   C.3       1 RES1   0.0000
    11 C      100.6084  99.2301  82.0916   C.3       1 RES1   0.0000
    12 C       99.1395  99.0305  81.6639   C.3       1 RES1   0.0000
    13 C       99.2696  97.8887  80.6415   C.3       1 RES1   0.0000
    14 O      100.4256  98.3114  79.9161   O.3       1 RES1   0.0000
    15 C       98.0475  97.7714  79.7100   C.3       1 RES1   0.0000
    16 O       96.8810  97.5247  80.5009   O.3       1 RES1   0.0000
    17 P       95.5323  98.3592  80.2942   P.3       1 RES1   0.0000
    18 O       95.1295  98.9789  81.5879   O.2       1 RES1   0.0000
    19 O       95.7813  99.5106  79.2116   O.3       1 RES1   0.0000
    20 O       94.3728  97.3773  79.7894   O.3       1 RES1   0.0000
    21 P       93.0547  98.1965  79.3937   P.3       1 RES1   0.0000
    22 O       92.0239  97.2593  78.8653   O.2       1 RES1   0.0000
    23 O       93.4328  99.2565  78.2567   O.3       1 RES1   0.0000
    24 O       92.4870  98.9664  80.6784   O.3       1 RES1   0.0000
    25 P       90.9491  98.6111  80.9482   P.3       1 RES1   0.0000
    26 O       90.1234  99.0003  79.7706   O.2       1 RES1   0.0000
    27 O       90.7892  97.0416  81.2151   O.3       1 RES1   0.0000
    28 O       90.4373  99.4179  82.2313   O.3       1 RES1   0.0000
    29 O       98.2707  98.6851  82.7490   O.3       1 RES1   0.0000
    30 O      100.9200  98.4334  83.2416   O.3       1 RES1   0.0000
    31 N      105.6956 102.4784  79.4240   N.pl3     1 RES1   0.0000
    32 H1     105.9790  99.7274  82.9236   H         1 RES1   0.0000
    33 H2     101.0477 100.3456  78.6847   H         1 RES1   0.0000
    34 H3     101.9708  97.7936  81.1922   H         1 RES1   0.0000
    35 H4     100.8245 100.2911  82.2928   H         1 RES1   0.0000
    36 H5      98.7852  99.9365  81.1483   H         1 RES1   0.0000
    37 H6      99.4687  96.9380  81.1599   H         1 RES1   0.0000
    38 H7      98.1955  96.9516  78.9913   H         1 RES1   0.0000
    39 H8      97.9223  98.7183  79.1635   H         1 RES1   0.0000
    40 H9      95.7738 100.3571  79.6427   H         1 RES1   0.0000
    41 H10     92.9160 100.0449  78.3745   H         1 RES1   0.0000
    42 H11     90.7471  96.8806  82.1502   H         1 RES1   0.0000
    43 H12     90.4766  98.8564  82.9966   H         1 RES1   0.0000
    44 H13     97.6895  99.4092  82.9521   H         1 RES1   0.0000
    45 H14    100.4032  97.6364  83.2518   H         1 RES1   0.0000
    46 H15    106.6277 102.8752  79.6124   H         1 RES1   0.0000
    47 H16    105.1441 102.8192  78.6237   H         1 RES1   0.0000
    48 ****   106.7930 101.4163  81.4791   Du        1 RES1   0.0000
    49 ****   103.8167  98.8085  82.4740   Du        1 RES1   0.0000
    50 ****   103.0854 101.8689  78.3074   Du        1 RES1   0.0000
    51 ****   100.1991  99.0917  79.3330   Du        1 RES1   0.0000
    52 ****   100.7698  97.5618  79.3509   Du        1 RES1   0.0000
    53 ****    94.1613  99.1187  81.7953   Du        1 RES1   0.0000
    54 ****    95.8274  99.2549  82.2488   Du        1 RES1   0.0000
    55 ****    95.0581  99.4815  78.5215   Du        1 RES1   0.0000
    56 ****    96.6679  99.3684  78.7714   Du        1 RES1   0.0000
    57 ****    92.0086  96.3078  79.1726   Du        1 RES1   0.0000
    58 ****    91.3473  97.5818  78.2032   Du        1 RES1   0.0000
    59 ****    93.2410  98.8635  77.3574   Du        1 RES1   0.0000
    60 ****    94.4049  99.4823  78.3213   Du        1 RES1   0.0000
    61 ****    89.6637  99.8882  79.7537   Du        1 RES1   0.0000
    62 ****    90.0289  98.3735  78.9971   Du        1 RES1   0.0000
    63 ****    91.5738  96.5566  80.8289   Du        1 RES1   0.0000
    64 ****    89.9491  96.7142  80.7827   Du        1 RES1   0.0000
    65 ****    89.4936  99.7141  82.0838   Du        1 RES1   0.0000
    66 ****    91.0192 100.2183  82.3753   Du        1 RES1   0.0000
    67 ****    98.8210  98.4683  83.5554   Du        1 RES1   0.0000
    68 ****    97.7255  97.8868  82.4932   Du        1 RES1   0.0000
    69 ****   100.7246  98.9610  84.0683   Du        1 RES1   0.0000
    70 ****   101.8907  98.1939  83.2207   Du        1 RES1   0.0000
@<TRIPOS>BOND
     1     1     2   ar
     2     2     3   ar
     3     3     4   ar
     4     4     5   ar
     5     5     6   ar
     6     1     6   ar
     7     5     7   ar
     8     7     8   ar
     9     8     9   ar
    10     4     9   ar
    11     7    10    1
    12    10    11    1
    13    11    12    1
    14    12    13    1
    15    13    14    1
    16    10    14    1
    17    13    15    1
    18    15    16    1
    19    16    17    1
    20    17    18    2
    21    17    19    1
    22    17    20    1
    23    20    21    1
    24    21    22    2
    25    21    23    1
    26    21    24    1
    27    24    25    1
    28    25    26    2
    29    25    27    1
    30    25    28    1
    31    12    29    1
    32    11    30    1
    33     3    31    1
    34     1    32    1
    35     8    33    1
    36    10    34    1
    37    11    35    1
    38    12    36    1
    39    13    37    1
    40    15    38    1
    41    15    39    1
    42    19    40    1
    43    23    41    1
    44    27    42    1
    45    28    43    1
    46    29    44    1
    47    30    45    1
    48    31    46    1
    49    31    47    1
    50     2    48    1
    51     6    49    1
    52     9    50    1
    53    14    51    1
    54    14    52    1
    55    18    53    1
    56    18    54    1
    57    19    55    1
    58    19    56    1
    59    22    57    1
    60    22    58    1
    61    23    59    1
    62    23    60    1
    63    26    61    1
    64    26    62    1
    65    27    63    1
    66    27    64    1
    67    28    65    1
    68    28    66    1
    69    29    67    1
    70    29    68    1
    71    30    69    1
    72    30    70    1
@<TRIPOS>SUBSTRUCTURE
     1 RES1        1 GROUP             0 ****  ****    0  
@<TRIPOS>MOLECULE
44.537
    70    72     1     0     0
SMALL
NO_CHARGES
****
Generated from the CSD

@<TRIPOS>ATOM
     1 C      101.8096 100.2930  77.1380   C.ar      1 RES1   0.0000
     2 N      102.7812 101.1505  77.5273   N.ar      1 RES1   0.0000
     3 C      103.1751 101.2373  78.8152   C.ar      1 RES1   0.0000
     4 C      102.5383 100.4041  79.7307   C.ar      1 RES1   0.0000
     5 C      101.5435  99.5383  79.3043   C.ar      1 RES1   0.0000
     6 N      101.1791  99.4795  78.0122   N.ar      1 RES1   0.0000
     7 N      101.1177  98.8796  80.3957   N.ar      1 RES1   0.0000
     8 C      101.8184  99.2965  81.4700   C.ar      1 RES1   0.0000
     9 N      102.6901 100.2401  81.0578   N.ar      1 RES1   0.0000
    10 C      100.1441  97.9276  80.4220   C.3       1 RES1   0.0000
    11 C      100.2163  97.0503  81.6935   C.3       1 RES1   0.0000
    12 C       98.8312  97.2469  82.3443   C.3       1 RES1   0.0000
    13 C       97.9748  97.6445  81.1300   C.3       1 RES1   0.0000
    14 O       98.8563  98.5541  80.4690   O.3       1 RES1   0.0000
    15 C       96.6580  98.3417  81.5234   C.3       1 RES1   0.0000
    16 O       95.7286  98.2264  80.4418   O.3       1 RES1   0.0000
    17 P       94.7535  99.4284  80.0385   P.3       1 RES1   0.0000
    18 O       93.9853  99.8672  81.2374   O.2       1 RES1   0.0000
    19 O       95.6219 100.6548  79.4894   O.3       1 RES1   0.0000
    20 O       93.7368  98.9299  78.9067   O.3       1 RES1   0.0000
    21 P       93.9251  97.3674  78.6095   P.3       1 RES1   0.0000
    22 O       93.5864  96.5825  79.8299   O.2       1 RES1   0.0000
    23 O       95.4541  97.1009  78.2213   O.3       1 RES1   0.0000
    24 O       92.9780  96.9269  77.3953   O.3       1 RES1   0.0000
    25 P       91.4306  97.1474  77.7430   P.3       1 RES1   0.0000
    26 O       91.1816  98.5802  78.0672   O.2       1 RES1   0.0000
    27 O       90.5235  96.7182  76.4967   O.3       1 RES1   0.0000
    28 O       91.0407  96.2525  79.0105   O.3       1 RES1   0.0000
    29 O       98.3329  96.0710  82.9927   O.3       1 RES1   0.0000
    30 O      100.4074  95.6861  81.2977   O.3       1 RES1   0.0000
    31 N      104.1442 102.0937  79.2034   N.pl3     1 RES1   0.0000
    32 H1     101.5285 100.2579  76.0916   H         1 RES1   0.0000
    33 H2     101.7030  98.9378  82.4865   H         1 RES1   0.0000
    34 H3     100.1935  97.2823  79.5314   H         1 RES1   0.0000
    35 H4     101.0241  97.3675  82.3714   H         1 RES1   0.0000
    36 H5      98.8767  98.0946  83.0455   H         1 RES1   0.0000
    37 H6      97.7862  96.7642  80.4960   H         1 RES1   0.0000
    38 H7      96.8431  99.4025  81.7494   H         1 RES1   0.0000
    39 H8      96.2428  97.8456  82.4136   H         1 RES1   0.0000
    40 H9      95.8753 101.2130  80.2151   H         1 RES1   0.0000
    41 H10     95.8194  96.4465  78.8051   H         1 RES1   0.0000
    42 H11     90.5292  97.4100  75.8460   H         1 RES1   0.0000
    43 H12     91.1330  95.3329  78.7909   H         1 RES1   0.0000
    44 H13     98.7396  95.2933  82.6278   H         1 RES1   0.0000
    45 H14    100.6407  95.6295  80.3785   H         1 RES1   0.0000
    46 H15    104.6043 102.7030  78.5114   H         1 RES1   0.0000
    47 H16    104.4245 102.1377  80.1936   H         1 RES1   0.0000
    48 ****   103.2184 101.7347  76.8435   Du        1 RES1   0.0000
    49 ****   100.4626  98.8522  77.7072   Du        1 RES1   0.0000
    50 ****   103.3379 100.7331  81.6386   Du        1 RES1   0.0000
    51 ****    98.9101  99.4125  80.9791   Du        1 RES1   0.0000
    52 ****    98.5292  98.7372  79.5419   Du        1 RES1   0.0000
    53 ****    93.4568  99.2012  81.7638   Du        1 RES1   0.0000
    54 ****    93.9982 100.8276  81.5155   Du        1 RES1   0.0000
    55 ****    95.0782 101.1826  78.8368   Du        1 RES1   0.0000
    56 ****    96.4416 100.3060  79.0350   Du        1 RES1   0.0000
    57 ****    92.6541  96.5972  80.1911   Du        1 RES1   0.0000
    58 ****    94.2915  96.0409  80.2877   Du        1 RES1   0.0000
    59 ****    95.9731  97.9513  78.3074   Du        1 RES1   0.0000
    60 ****    95.5063  96.7726  77.2781   Du        1 RES1   0.0000
    61 ****    91.2680  99.2764  77.3545   Du        1 RES1   0.0000
    62 ****    90.9282  98.8457  78.9974   Du        1 RES1   0.0000
    63 ****    89.5859  96.5599  76.8062   Du        1 RES1   0.0000
    64 ****    90.8877  95.8788  76.0934   Du        1 RES1   0.0000
    65 ****    90.0936  96.4392  79.2712   Du        1 RES1   0.0000
    66 ****    91.6467  96.4750  79.7742   Du        1 RES1   0.0000
    67 ****    97.3430  96.0172  82.8620   Du        1 RES1   0.0000
    68 ****    98.5378  96.1220  83.9702   Du        1 RES1   0.0000
    69 ****    99.5598  95.1784  81.4522   Du        1 RES1   0.0000
    70 ****   101.1408  95.2854  81.8469   Du        1 RES1   0.0000
@<TRIPOS>BOND
     1     1     2   ar
     2     2     3   ar
     3     3     4   ar
     4     4     5   ar
     5     5     6   ar
     6     1     6   ar
     7     5     7   ar
     8     7     8   ar
     9     8     9   ar
    10     4     9   ar
    11     7    10    1
    12    10    11    1
    13    11    12    1
    14    12    13    1
    15    13    14    1
    16    10    14    1
    17    13    15    1
    18    15    16    1
    19    16    17    1
    20    17    18    2
    21    17    19    1
    22    17    20    1
    23    20    21    1
    24    21    22    2
    25    21    23    1
    26    21    24    1
    27    24    25    1
    28    25    26    2
    29    25    27    1
    30    25    28    1
    31    12    29    1
    32    11    30    1
    33     3    31    1
    34     1    32    1
    35     8    33    1
    36    10    34    1
    37    11    35    1
    38    12    36    1
    39    13    37    1
    40    15    38    1
    41    15    39    1
    42    19    40    1
    43    23    41    1
    44    27    42    1
    45    28    43    1
    46    29    44    1
    47    30    45    1
    48    31    46    1
    49    31    47    1
    50     2    48    1
    51     6    49    1
    52     9    50    1
    53    14    51    1
    54    14    52    1
    55    18    53    1
    56    18    54    1
    57    19    55    1
    58    19    56    1
    59    22    57    1
    60    22    58    1
    61    23    59    1
    62    23    60    1
    63    26    61    1
    64    26    62    1
    65    27    63    1
    66    27    64    1
    67    28    65    1
    68    28    66    1
    69    29    67    1
    70    29    68    1
    71    30    69    1
    72    30    70    1
@<TRIPOS>SUBSTRUCTURE
     1 RES1        1 GROUP             0 ****  ****    0  
@<TRIPOS>MOLECULE
44.4569
    70    72     1     0     0
SMALL
NO_CHARGES
****
Generated from the CSD

@<TRIPOS>ATOM
     1 C       94.9428  94.9543  83.6814   C.ar      1 RES1   0.0000
     2 N       95.1013  93.6596  84.0412   N.ar      1 RES1   0.0000
     3 C       96.2490  92.9923  83.7986   C.ar      1 RES1   0.0000
     4 C       97.2679  93.6940  83.1605   C.ar      1 RES1   0.0000
     5 C       97.0763  95.0185  82.7997   C.ar      1 RES1   0.0000
     6 N       95.9189  95.6499  83.0594   N.ar      1 RES1   0.0000
     7 N       98.2129  95.4199  82.2053   N.ar      1 RES1   0.0000
     8 C       99.0965  94.4011  82.1982   C.ar      1 RES1   0.0000
     9 N       98.5093  93.3367  82.7834   N.ar      1 RES1   0.0000
    10 C       98.4517  96.6620  81.7003   C.3       1 RES1   0.0000
    11 C       98.7995  96.6255  80.1938   C.3       1 RES1   0.0000
    12 C       97.7189  97.5220  79.5542   C.3       1 RES1   0.0000
    13 C       97.3242  98.4203  80.7388   C.3       1 RES1   0.0000
    14 O       97.2644  97.4586  81.7937   O.3       1 RES1   0.0000
    15 C       95.9598  99.1097  80.5441   C.3       1 RES1   0.0000
    16 O       95.9273  99.7217  79.2513   O.3       1 RES1   0.0000
    17 P       94.5774 100.3215  78.6379   P.3       1 RES1   0.0000
    18 O       94.0611  99.4036  77.5839   O.2       1 RES1   0.0000
    19 O       93.4843 100.4625  79.7977   O.3       1 RES1   0.0000
    20 O       94.8786 101.7564  77.9947   O.3       1 RES1   0.0000
    21 P       93.5479 102.4054  77.3837   P.3       1 RES1   0.0000
    22 O       92.3948 101.4901  77.6130   O.2       1 RES1   0.0000
    23 O       93.7531 102.6075  75.8099   O.3       1 RES1   0.0000
    24 O       93.2674 103.8227  78.0750   O.3       1 RES1   0.0000
    25 P       94.3145 104.9335  77.5912   P.3       1 RES1   0.0000
    26 O       94.0379 106.2262  78.2785   O.2       1 RES1   0.0000
    27 O       95.8062 104.4612  77.9258   O.3       1 RES1   0.0000
    28 O       94.1708 105.1434  76.0119   O.3       1 RES1   0.0000
    29 O       98.1952  98.2819  78.4375   O.3       1 RES1   0.0000
    30 O      100.1053  97.1879  80.0121   O.3       1 RES1   0.0000
    31 N       96.4064  91.6999  84.1572   N.pl3     1 RES1   0.0000
    32 H1      94.0030  95.4486  83.8992   H         1 RES1   0.0000
    33 H2     100.1021  94.4303  81.7939   H         1 RES1   0.0000
    34 H3      99.2623  97.1661  82.2487   H         1 RES1   0.0000
    35 H4      98.7639  95.6039  79.7842   H         1 RES1   0.0000
    36 H5      96.8548  96.9019  79.2694   H         1 RES1   0.0000
    37 H6      98.1188  99.1567  80.9358   H         1 RES1   0.0000
    38 H7      95.8038  99.8695  81.3245   H         1 RES1   0.0000
    39 H8      95.1641  98.3522  80.6075   H         1 RES1   0.0000
    40 H9      92.7261  99.9315  79.5840   H         1 RES1   0.0000
    41 H10     92.9880 103.0350  75.4433   H         1 RES1   0.0000
    42 H11     95.8113 103.9797  78.7444   H         1 RES1   0.0000
    43 H12     94.0581 106.0675  75.8228   H         1 RES1   0.0000
    44 H13     98.5546  97.7053  77.7728   H         1 RES1   0.0000
    45 H14    100.6824  96.5710  79.5776   H         1 RES1   0.0000
    46 H15     95.6408  91.1966  84.6286   H         1 RES1   0.0000
    47 H16     97.2941  91.2165  83.9594   H         1 RES1   0.0000
    48 ****    94.3490  93.1852  84.4985   Du        1 RES1   0.0000
    49 ****    95.7844  96.6062  82.7999   Du        1 RES1   0.0000
    50 ****    98.9251  92.4367  82.9144   Du        1 RES1   0.0000
    51 ****    96.4544  96.8819  81.6875   Du        1 RES1   0.0000
    52 ****    97.2300  97.9217  82.6794   Du        1 RES1   0.0000
    53 ****    94.3697  99.5045  76.6381   Du        1 RES1   0.0000
    54 ****    93.4059  98.6868  77.8223   Du        1 RES1   0.0000
    55 ****    93.2081 101.4200  79.8809   Du        1 RES1   0.0000
    56 ****    93.8754 100.1519  80.6640   Du        1 RES1   0.0000
    57 ****    92.0177 100.9608  76.8530   Du        1 RES1   0.0000
    58 ****    91.9981 101.4050  78.5270   Du        1 RES1   0.0000
    59 ****    93.8786 101.7168  75.3730   Du        1 RES1   0.0000
    60 ****    94.5609 103.1744  75.6490   Du        1 RES1   0.0000
    61 ****    94.7914 106.7584  78.6647   Du        1 RES1   0.0000
    62 ****    93.0989 106.5617  78.3535   Du        1 RES1   0.0000
    63 ****    96.3988 105.2626  78.0073   Du        1 RES1   0.0000
    64 ****    96.1416 103.8720  77.1908   Du        1 RES1   0.0000
    65 ****    93.3756 104.6361  75.6796   Du        1 RES1   0.0000
    66 ****    94.9948 104.8081  75.5551   Du        1 RES1   0.0000
    67 ****    98.9075  98.9117  78.7473   Du        1 RES1   0.0000
    68 ****    97.4367  98.8031  78.0462   Du        1 RES1   0.0000
    69 ****   100.4886  97.4213  80.9058   Du        1 RES1   0.0000
    70 ****   100.0309  98.0150  79.4550   Du        1 RES1   0.0000
@<TRIPOS>BOND
     1     1     2   ar
     2     2     3   ar
     3     3     4   ar
     4     4     5   ar
     5     5     6   ar
     6     1     6   ar
     7     5     7   ar
     8     7     8   ar
     9     8     9   ar
    10     4     9   ar
    11     7    10    1
    12    10    11    1
    13    11    12    1
    14    12    13    1
    15    13    14    1
    16    10    14    1
    17    13    15    1
    18    15    16    1
    19    16    17    1
    20    17    18    2
    21    17    19    1
    22    17    20    1
    23    20    21    1
    24    21    22    2
    25    21    23    1
    26    21    24    1
    27    24    25    1
    28    25    26    2
    29    25    27    1
    30    25    28    1
    31    12    29    1
    32    11    30    1
    33     3    31    1
    34     1    32    1
    35     8    33    1
    36    10    34    1
    37    11    35    1
    38    12    36    1
    39    13    37    1
    40    15    38    1
    41    15    39    1
    42    19    40    1
    43    23    41    1
    44    27    42    1
    45    28    43    1
    46    29    44    1
    47    30    45    1
    48    31    46    1
    49    31    47    1
    50     2    48    1
    51     6    49    1
    52     9    50    1
    53    14    51    1
    54    14    52    1
    55    18    53    1
    56    18    54    1
    57    19    55    1
    58    19    56    1
    59    22    57    1
    60    22    58    1
    61    23    59    1
    62    23    60    1
    63    26    61    1
    64    26    62    1
    65    27    63    1
    66    27    64    1
    67    28    65    1
    68    28    66    1
    69    29    67    1
    70    29    68    1
    71    30    69    1
    72    30    70    1
@<TRIPOS>SUBSTRUCTURE
     1 RES1        1 GROUP             0 ****  ****    0  
@<TRIPOS>MOLECULE
44.0097
    70    72     1     0     0
SMALL
NO_CHARGES
****
Generated from the CSD

@<TRIPOS>ATOM
     1 C      102.0407 100.3559  77.4415   C.ar      1 RES1   0.0000
     2 N      103.0710 101.2147  77.6194   N.ar      1 RES1   0.0000
     3 C      103.5514 101.4999  78.8479   C.ar      1 RES1   0.0000
     4 C      102.9410 100.8709  79.9294   C.ar      1 RES1   0.0000
     5 C      101.8847  99.9988  79.7178   C.ar      1 RES1   0.0000
     6 N      101.4347  99.7388  78.4786   N.ar      1 RES1   0.0000
     7 N      101.5036  99.5604  80.9298   N.ar      1 RES1   0.0000
     8 C      102.2899 100.1175  81.8732   C.ar      1 RES1   0.0000
     9 N      103.1721 100.9290  81.2539   N.ar      1 RES1   0.0000
    10 C      100.4943  98.6800  81.1770   C.3       1 RES1   0.0000
    11 C      100.1557  98.5842  82.6830   C.3       1 RES1   0.0000
    12 C       98.6636  98.9724  82.7407   C.3       1 RES1   0.0000
    13 C       98.1999  98.6232  81.3163   C.3       1 RES1   0.0000
    14 O       99.2901  99.1357  80.5482   O.3       1 RES1   0.0000
    15 C       96.8787  99.3140  80.9261   C.3       1 RES1   0.0000
    16 O       95.7843  98.4725  81.3020   O.3       1 RES1   0.0000
    17 P       94.2989  98.7364  80.7708   P.3       1 RES1   0.0000
    18 O       93.4469  99.2118  81.8968   O.2       1 RES1   0.0000
    19 O       94.3352  99.8545  79.6269   O.3       1 RES1   0.0000
    20 O       93.6956  97.3746  80.1836   O.3       1 RES1   0.0000
    21 P       92.1272  97.5167  79.8925   P.3       1 RES1   0.0000
    22 O       91.9032  98.5742  78.8669   O.2       1 RES1   0.0000
    23 O       91.3907  97.9367  81.2493   O.3       1 RES1   0.0000
    24 O       91.5416  96.1190  79.3740   O.3       1 RES1   0.0000
    25 P       91.7629  94.9513  80.4471   P.3       1 RES1   0.0000
    26 O       92.5850  93.8614  79.8502   O.2       1 RES1   0.0000
    27 O       92.5056  95.5309  81.7404   O.3       1 RES1   0.0000
    28 O       90.3431  94.3542  80.8792   O.3       1 RES1   0.0000
    29 O       97.9256  98.2567  83.7379   O.3       1 RES1   0.0000
    30 O      100.3497  97.2299  83.1102   O.3       1 RES1   0.0000
    31 N      104.5792 102.3577  79.0250   N.pl3     1 RES1   0.0000
    32 H1     101.6907 100.1569  76.4350   H         1 RES1   0.0000
    33 H2     102.2260  99.9451  82.9417   H         1 RES1   0.0000
    34 H3     100.7378  97.6769  80.7943   H         1 RES1   0.0000
    35 H4     100.7694  99.2675  83.2907   H         1 RES1   0.0000
    36 H5      98.5770 100.0598  82.8908   H         1 RES1   0.0000
    37 H6      98.1285  97.5307  81.1993   H         1 RES1   0.0000
    38 H7      96.8544  99.5017  79.8422   H         1 RES1   0.0000
    39 H8      96.8029 100.2708  81.4644   H         1 RES1   0.0000
    40 H9      94.6654  99.4729  78.8221   H         1 RES1   0.0000
    41 H10     90.4520  97.9614  81.1052   H         1 RES1   0.0000
    42 H11     91.8877  96.0216  82.2689   H         1 RES1   0.0000
    43 H12     90.3900  93.4056  80.9003   H         1 RES1   0.0000
    44 H13     97.2799  98.8239  84.1438   H         1 RES1   0.0000
    45 H14     99.9458  96.6217  82.5023   H         1 RES1   0.0000
    46 H15    105.0185 102.8140  78.2124   H         1 RES1   0.0000
    47 H16    104.9251 102.5557  79.9748   H         1 RES1   0.0000
    48 ****   103.4870 101.6490  76.8205   Du        1 RES1   0.0000
    49 ****   100.6739  99.1074  78.3289   Du        1 RES1   0.0000
    50 ****   103.8766 101.4792  81.7021   Du        1 RES1   0.0000
    51 ****    99.2642 100.1353  80.5392   Du        1 RES1   0.0000
    52 ****    99.2411  98.7924  79.6103   Du        1 RES1   0.0000
    53 ****    93.6576  98.9356  82.8345   Du        1 RES1   0.0000
    54 ****    92.6642  99.8071  81.7148   Du        1 RES1   0.0000
    55 ****    94.9341 100.6031  79.9113   Du        1 RES1   0.0000
    56 ****    93.4114 100.2060  79.4748   Du        1 RES1   0.0000
    57 ****    91.0518  99.0987  78.8672   Du        1 RES1   0.0000
    58 ****    92.6044  98.7595  78.1784   Du        1 RES1   0.0000
    59 ****    91.7081  98.8409  81.5348   Du        1 RES1   0.0000
    60 ****    91.6009  97.2688  81.9632   Du        1 RES1   0.0000
    61 ****    92.4069  93.5559  78.9148   Du        1 RES1   0.0000
    62 ****    93.3148  93.4355  80.3849   Du        1 RES1   0.0000
    63 ****    93.2510  96.1331  81.4544   Du        1 RES1   0.0000
    64 ****    92.8765  94.7740  82.2785   Du        1 RES1   0.0000
    65 ****    89.6475  94.6385  80.2193   Du        1 RES1   0.0000
    66 ****    90.1005  94.6958  81.7872   Du        1 RES1   0.0000
    67 ****    98.5566  97.9221  84.4379   Du        1 RES1   0.0000
    68 ****    97.4606  97.4814  83.3104   Du        1 RES1   0.0000
    69 ****    99.9399  97.1099  84.0144   Du        1 RES1   0.0000
    70 ****   101.3302  97.0397  83.1607   Du        1 RES1   0.0000
@<TRIPOS>BOND
     1     1     2   ar
     2     2     3   ar
     3     3     4   ar
     4     4     5   ar
     5     5     6   ar
     6     1     6   ar
     7     5     7   ar
     8     7     8   ar
     9     8     9   ar
    10     4     9   ar
    11     7    10    1
    12    10    11    1
    13    11    12    1
    14    12    13    1
    15    13    14    1
    16    10    14    1
    17    13    15    1
    18    15    16    1
    19    16    17    1
    20    17    18    2
    21    17    19    1
    22    17    20    1
    23    20    21    1
    24    21    22    2
    25    21    23    1
    26    21    24    1
    27    24    25    1
    28    25    26    2
    29    25    27    1
    30    25    28    1
    31    12    29    1
    32    11    30    1
    33     3    31    1
    34     1    32    1
    35     8    33    1
    36    10    34    1
    37    11    35    1
    38    12    36    1
    39    13    37    1
    40    15    38    1
    41    15    39    1
    42    19    40    1
    43    23    41    1
    44    27    42    1
    45    28    43    1
    46    29    44    1
    47    30    45    1
    48    31    46    1
    49    31    47    1
    50     2    48    1
    51     6    49    1
    52     9    50    1
    53    14    51    1
    54    14    52    1
    55    18    53    1
    56    18    54    1
    57    19    55    1
    58    19    56    1
    59    22    57    1
    60    22    58    1
    61    23    59    1
    62    23    60    1
    63    26    61    1
    64    26    62    1
    65    27    63    1
    66    27    64    1
    67    28    65    1
    68    28    66    1
    69    29    67    1
    70    29    68    1
    71    30    69    1
    72    30    70    1
@<TRIPOS>SUBSTRUCTURE
     1 RES1        1 GROUP             0 ****  ****    0  
@<TRIPOS>MOLECULE
43.8835
    70    72     1     0     0
SMALL
NO_CHARGES
****
Generated from the CSD

@<TRIPOS>ATOM
     1 C       98.3230  94.4561  82.1656   C.ar      1 RES1   0.0000
     2 N       99.0783  94.0112  83.1962   N.ar      1 RES1   0.0000
     3 C       99.9029  94.8344  83.8774   C.ar      1 RES1   0.0000
     4 C       99.9441  96.1663  83.4745   C.ar      1 RES1   0.0000
     5 C       99.1623  96.5934  82.4127   C.ar      1 RES1   0.0000
     6 N       98.3520  95.7436  81.7593   N.ar      1 RES1   0.0000
     7 N       99.4165  97.9037  82.2551   N.ar      1 RES1   0.0000
     8 C      100.3113  98.2994  83.1833   C.ar      1 RES1   0.0000
     9 N      100.6386  97.2248  83.9306   N.ar      1 RES1   0.0000
    10 C       98.8532  98.7172  81.3192   C.3       1 RES1   0.0000
    11 C       99.2450  98.3129  79.8788   C.3       1 RES1   0.0000
    12 C       97.8863  98.0402  79.2004   C.3       1 RES1   0.0000
    13 C       96.9372  98.8924  80.0601   C.3       1 RES1   0.0000
    14 O       97.4263  98.5967  81.3695   O.3       1 RES1   0.0000
    15 C       95.4597  98.4783  79.9177   C.3       1 RES1   0.0000
    16 O       94.6860  99.1652  80.9060   O.3       1 RES1   0.0000
    17 P       93.1028  99.3414  80.7623   P.3       1 RES1   0.0000
    18 O       92.5895 100.1568  81.8988   O.2       1 RES1   0.0000
    19 O       92.7746 100.0877  79.3857   O.3       1 RES1   0.0000
    20 O       92.4047  97.9006  80.7817   O.3       1 RES1   0.0000
    21 P       90.8133  98.0289  80.6551   P.3       1 RES1   0.0000
    22 O       90.4672  98.7120  79.3769   O.2       1 RES1   0.0000
    23 O       90.2711  98.9026  81.8809   O.3       1 RES1   0.0000
    24 O       90.1455  96.5736  80.6961   O.3       1 RES1   0.0000
    25 P       88.5496  96.6529  80.5919   P.3       1 RES1   0.0000
    26 O       88.0055  97.4544  81.7240   O.2       1 RES1   0.0000
    27 O       88.1251  97.3318  79.2066   O.3       1 RES1   0.0000
    28 O       87.9411  95.1750  80.6618   O.3       1 RES1   0.0000
    29 O       97.8507  98.4210  77.8202   O.3       1 RES1   0.0000
    30 O       99.9143  99.4186  79.2594   O.3       1 RES1   0.0000
    31 N      100.6571  94.3897  84.9054   N.pl3     1 RES1   0.0000
    32 H1      97.6742  93.7573  81.6499   H         1 RES1   0.0000
    33 H2     100.7003  99.3035  83.3085   H         1 RES1   0.0000
    34 H3      99.1275  99.7698  81.4890   H         1 RES1   0.0000
    35 H4      99.8873  97.4186  79.8588   H         1 RES1   0.0000
    36 H5      97.6262  96.9774  79.3231   H         1 RES1   0.0000
    37 H6      97.0761  99.9603  79.8310   H         1 RES1   0.0000
    38 H7      95.3562  97.3906  80.0476   H         1 RES1   0.0000
    39 H8      95.1037  98.7620  78.9159   H         1 RES1   0.0000
    40 H9      92.3928 100.9378  79.5701   H         1 RES1   0.0000
    41 H10     90.4109  98.4297  82.6929   H         1 RES1   0.0000
    42 H11     87.4194  96.8341  78.8115   H         1 RES1   0.0000
    43 H12     88.5125  94.5736  80.1988   H         1 RES1   0.0000
    44 H13     98.4337  97.8711  77.3091   H         1 RES1   0.0000
    45 H14    100.3783  99.1396  78.4788   H         1 RES1   0.0000
    46 H15    100.6136  93.4001  85.1893   H         1 RES1   0.0000
    47 H16    101.2771  95.0414  85.4071   H         1 RES1   0.0000
    48 ****    99.0243  93.0481  83.4599   Du        1 RES1   0.0000
    49 ****    97.7874  96.0553  80.9950   Du        1 RES1   0.0000
    50 ****   101.2861  97.2165  84.6926   Du        1 RES1   0.0000
    51 ****    97.1689  97.6663  81.6305   Du        1 RES1   0.0000
    52 ****    97.0498  99.2448  82.0314   Du        1 RES1   0.0000
    53 ****    92.4631  99.7377  82.7979   Du        1 RES1   0.0000
    54 ****    92.3715 101.1232  81.7625   Du        1 RES1   0.0000
    55 ****    92.1279  99.5397  78.8553   Du        1 RES1   0.0000
    56 ****    93.6180 100.2075  78.8620   Du        1 RES1   0.0000
    57 ****    91.1509  99.2709  78.9076   Du        1 RES1   0.0000
    58 ****    89.5513  98.6116  78.9883   Du        1 RES1   0.0000
    59 ****    89.2937  99.0760  81.7601   Du        1 RES1   0.0000
    60 ****    90.7625  99.7729  81.9130   Du        1 RES1   0.0000
    61 ****    87.7067  96.9975  82.5618   Du        1 RES1   0.0000
    62 ****    87.9392  98.4491  81.6459   Du        1 RES1   0.0000
    63 ****    88.9105  97.3448  78.5878   Du        1 RES1   0.0000
    64 ****    87.8181  98.2685  79.3752   Du        1 RES1   0.0000
    65 ****    87.0356  95.1673  80.2375   Du        1 RES1   0.0000
    66 ****    87.8638  94.8916  81.6176   Du        1 RES1   0.0000
    67 ****    98.1381  99.3750  77.7341   Du        1 RES1   0.0000
    68 ****    96.9174  98.3217  77.4751   Du        1 RES1   0.0000
    69 ****   100.5682  99.8100  79.9068   Du        1 RES1   0.0000
    70 ****    99.2384 100.1115  79.0084   Du        1 RES1   0.0000
@<TRIPOS>BOND
     1     1     2   ar
     2     2     3   ar
     3     3     4   ar
     4     4     5   ar
     5     5     6   ar
     6     1     6   ar
     7     5     7   ar
     8     7     8   ar
     9     8     9   ar
    10     4     9   ar
    11     7    10    1
    12    10    11    1
    13    11    12    1
    14    12    13    1
    15    13    14    1
    16    10    14    1
    17    13    15    1
    18    15    16    1
    19    16    17    1
    20    17    18    2
    21    17    19    1
    22    17    20    1
    23    20    21    1
    24    21    22    2
    25    21    23    1
    26    21    24    1
    27    24    25    1
    28    25    26    2
    29    25    27    1
    30    25    28    1
    31    12    29    1
    32    11    30    1
    33     3    31    1
    34     1    32    1
    35     8    33    1
    36    10    34    1
    37    11    35    1
    38    12    36    1
    39    13    37    1
    40    15    38    1
    41    15    39    1
    42    19    40    1
    43    23    41    1
    44    27    42    1
    45    28    43    1
    46    29    44    1
    47    30    45    1
    48    31    46    1
    49    31    47    1
    50     2    48    1
    51     6    49    1
    52     9    50    1
    53    14    51    1
    54    14    52    1
    55    18    53    1
    56    18    54    1
    57    19    55    1
    58    19    56    1
    59    22    57    1
    60    22    58    1
    61    23    59    1
    62    23    60    1
    63    26    61    1
    64    26    62    1
    65    27    63    1
    66    27    64    1
    67    28    65    1
    68    28    66    1
    69    29    67    1
    70    29    68    1
    71    30    69    1
    72    30    70    1
@<TRIPOS>SUBSTRUCTURE
     1 RES1        1 GROUP             0 ****  ****    0  
@<TRIPOS>MOLECULE
43.8093
    70    72     1     0     0
SMALL
NO_CHARGES
****
Generated from the CSD

@<TRIPOS>ATOM
     1 C      101.6659 100.0937  77.3629   C.ar      1 RES1   0.0000
     2 N      102.6125 101.0514  77.4955   N.ar      1 RES1   0.0000
     3 C      103.3394 101.1773  78.6256   C.ar      1 RES1   0.0000
     4 C      103.0746 100.2769  79.6537   C.ar      1 RES1   0.0000
     5 C      102.0962  99.3085  79.4916   C.ar      1 RES1   0.0000
     6 N      101.3934  99.2137  78.3503   N.ar      1 RES1   0.0000
     7 N      102.0638  98.6042  80.6359   N.ar      1 RES1   0.0000
     8 C      102.9894  99.0924  81.4866   C.ar      1 RES1   0.0000
     9 N      103.6076 100.1270  80.8802   N.ar      1 RES1   0.0000
    10 C      101.2413  97.5512  80.8998   C.3       1 RES1   0.0000
    11 C      101.1188  97.2685  82.4153   C.3       1 RES1   0.0000
    12 C       99.6050  97.3991  82.6835   C.3       1 RES1   0.0000
    13 C       99.0199  97.1052  81.2916   C.3       1 RES1   0.0000
    14 O       99.9106  97.8560  80.4645   O.3       1 RES1   0.0000
    15 C       97.5696  97.6007  81.1306   C.3       1 RES1   0.0000
    16 O       97.1406  97.3577  79.7874   O.3       1 RES1   0.0000
    17 P       97.2711  98.4723  78.6478   P.3       1 RES1   0.0000
    18 O       98.6137  99.1130  78.7323   O.2       1 RES1   0.0000
    19 O       97.1025  97.7860  77.2124   O.3       1 RES1   0.0000
    20 O       96.1365  99.5821  78.8585   O.3       1 RES1   0.0000
    21 P       95.9553 100.4787  77.5439   P.3       1 RES1   0.0000
    22 O       97.1151 100.2690  76.6323   O.2       1 RES1   0.0000
    23 O       95.8998 102.0177  77.9776   O.3       1 RES1   0.0000
    24 O       94.5945 100.0815  76.7982   O.3       1 RES1   0.0000
    25 P       94.3687 100.9558  75.4758   P.3       1 RES1   0.0000
    26 O       95.4938 101.9174  75.3039   O.2       1 RES1   0.0000
    27 O       94.2856  99.9994  74.1957   O.3       1 RES1   0.0000
    28 O       93.0011 101.7747  75.6104   O.3       1 RES1   0.0000
    29 O       99.1200  96.4864  83.6750   O.3       1 RES1   0.0000
    30 O      101.5708  95.9323  82.6693   O.3       1 RES1   0.0000
    31 N      104.2835 102.1337  78.7577   N.pl3     1 RES1   0.0000
    32 H1     101.1087 100.0309  76.4351   H         1 RES1   0.0000
    33 H2     103.2008  98.7205  82.4828   H         1 RES1   0.0000
    34 H3     101.5835  96.6396  80.3861   H         1 RES1   0.0000
    35 H4     101.6943  97.9872  83.0195   H         1 RES1   0.0000
    36 H5      99.3735  98.4398  82.9587   H         1 RES1   0.0000
    37 H6      99.1016  96.0305  81.0664   H         1 RES1   0.0000
    38 H7      97.5085  98.6758  81.3567   H         1 RES1   0.0000
    39 H8      96.9223  97.0440  81.8249   H         1 RES1   0.0000
    40 H9      97.9522  97.7160  76.7935   H         1 RES1   0.0000
    41 H10     96.2984 102.1198  78.8338   H         1 RES1   0.0000
    42 H11     93.4157 100.0487  73.8177   H         1 RES1   0.0000
    43 H12     92.3477 101.4000  75.0315   H         1 RES1   0.0000
    44 H13     98.1793  96.5763  83.7769   H         1 RES1   0.0000
    45 H14    102.1816  95.9138  83.3967   H         1 RES1   0.0000
    46 H15    104.4655 102.7916  77.9859   H         1 RES1   0.0000
    47 H16    104.8232 102.2054  79.6321   H         1 RES1   0.0000
    48 ****   102.7776 101.6818  76.7370   Du        1 RES1   0.0000
    49 ****   100.6898  98.5125  78.2355   Du        1 RES1   0.0000
    50 ****   104.3367 100.6863  81.2745   Du        1 RES1   0.0000
    51 ****    99.7314  98.8346  80.5661   Du        1 RES1   0.0000
    52 ****    99.7937  97.5935  79.5067   Du        1 RES1   0.0000
    53 ****    99.2254  99.0982  77.9414   Du        1 RES1   0.0000
    54 ****    98.9030  99.5577  79.5799   Du        1 RES1   0.0000
    55 ****    96.4961  98.3435  76.6454   Du        1 RES1   0.0000
    56 ****    96.7093  96.8732  77.3234   Du        1 RES1   0.0000
    57 ****    97.5504 101.0524  76.1886   Du        1 RES1   0.0000
    58 ****    97.4583  99.3449  76.4643   Du        1 RES1   0.0000
    59 ****    94.9471 102.3194  78.0152   Du        1 RES1   0.0000
    60 ****    96.3983 102.5705  77.3098   Du        1 RES1   0.0000
    61 ****    96.3966 101.5866  75.0291   Du        1 RES1   0.0000
    62 ****    95.3461 102.8934  75.4634   Du        1 RES1   0.0000
    63 ****    94.4760  99.0571  74.4711   Du        1 RES1   0.0000
    64 ****    94.9603 100.2913  73.5177   Du        1 RES1   0.0000
    65 ****    93.1590 102.7300  75.3603   Du        1 RES1   0.0000
    66 ****    92.6759 101.7268  76.5548   Du        1 RES1   0.0000
    67 ****    99.5661  96.6814  84.5485   Du        1 RES1   0.0000
    68 ****    99.3329  95.5507  83.3937   Du        1 RES1   0.0000
    69 ****   102.0249  95.5792  81.8513   Du        1 RES1   0.0000
    70 ****   100.7833  95.3563  82.8883   Du        1 RES1   0.0000
@<TRIPOS>BOND
     1     1     2   ar
     2     2     3   ar
     3     3     4   ar
     4     4     5   ar
     5     5     6   ar
     6     1     6   ar
     7     5     7   ar
     8     7     8   ar
     9     8     9   ar
    10     4     9   ar
    11     7    10    1
    12    10    11    1
    13    11    12    1
    14    12    13    1
    15    13    14    1
    16    10    14    1
    17    13    15    1
    18    15    16    1
    19    16    17    1
    20    17    18    2
    21    17    19    1
    22    17    20    1
    23    20    21    1
    24    21    22    2
    25    21    23    1
    26    21    24    1
    27    24    25    1
    28    25    26    2
    29    25    27    1
    30    25    28    1
    31    12    29    1
    32    11    30    1
    33     3    31    1
    34     1    32    1
    35     8    33    1
    36    10    34    1
    37    11    35    1
    38    12    36    1
    39    13    37    1
    40    15    38    1
    41    15    39    1
    42    19    40    1
    43    23    41    1
    44    27    42    1
    45    28    43    1
    46    29    44    1
    47    30    45    1
    48    31    46    1
    49    31    47    1
    50     2    48    1
    51     6    49    1
    52     9    50    1
    53    14    51    1
    54    14    52    1
    55    18    53    1
    56    18    54    1
    57    19    55    1
    58    19    56    1
    59    22    57    1
    60    22    58    1
    61    23    59    1
    62    23    60    1
    63    26    61    1
    64    26    62    1
    65    27    63    1
    66    27    64    1
    67    28    65    1
    68    28    66    1
    69    29    67    1
    70    29    68    1
    71    30    69    1
    72    30    70    1
@<TRIPOS>SUBSTRUCTURE
     1 RES1        1 GROUP             0 ****  ****    0  
@<TRIPOS>MOLECULE
43.2318
    70    72     1     0     0
SMALL
NO_CHARGES
****
Generated from the CSD

@<TRIPOS>ATOM
     1 C      103.5488 100.7871  81.8672   C.ar      1 RES1   0.0000
     2 N      104.2675 101.6095  81.0684   N.ar      1 RES1   0.0000
     3 C      104.0421 101.6815  79.7397   C.ar      1 RES1   0.0000
     4 C      103.0347 100.8718  79.2225   C.ar      1 RES1   0.0000
     5 C      102.3172 100.0360  80.0638   C.ar      1 RES1   0.0000
     6 N      102.5701  99.9928  81.3828   N.ar      1 RES1   0.0000
     7 N      101.4333  99.3835  79.2897   N.ar      1 RES1   0.0000
     8 C      101.5709  99.7937  78.0123   C.ar      1 RES1   0.0000
     9 N      102.5625 100.7077  77.9731   N.ar      1 RES1   0.0000
    10 C      100.5260  98.4630  79.7190   C.3       1 RES1   0.0000
    11 C      100.1133  98.6896  81.1922   C.3       1 RES1   0.0000
    12 C       98.5842  98.8789  81.1114   C.3       1 RES1   0.0000
    13 C       98.2514  98.1377  79.8053   C.3       1 RES1   0.0000
    14 O       99.3144  98.5895  78.9645   O.3       1 RES1   0.0000
    15 C       96.8812  98.5324  79.2206   C.3       1 RES1   0.0000
    16 O       96.1962  99.3658  80.1604   O.3       1 RES1   0.0000
    17 P       94.6309  99.6681  80.0324   P.3       1 RES1   0.0000
    18 O       93.9830  99.4999  81.3635   O.2       1 RES1   0.0000
    19 O       94.4203 101.1719  79.5284   O.3       1 RES1   0.0000
    20 O       93.9767  98.6460  78.9880   O.3       1 RES1   0.0000
    21 P       92.3899  98.8454  78.9023   P.3       1 RES1   0.0000
    22 O       91.9559  98.7921  77.4778   O.2       1 RES1   0.0000
    23 O       92.0205 100.2783  79.5105   O.3       1 RES1   0.0000
    24 O       91.6517  97.6988  79.7424   O.3       1 RES1   0.0000
    25 P       90.5189  98.3039  80.6989   P.3       1 RES1   0.0000
    26 O       89.5882  99.1570  79.9078   O.2       1 RES1   0.0000
    27 O       89.6966  97.1182  81.3904   O.3       1 RES1   0.0000
    28 O       91.2068  99.1982  81.8330   O.3       1 RES1   0.0000
    29 O       97.8813  98.3337  82.2340   O.3       1 RES1   0.0000
    30 O      100.4453  97.5166  81.9458   O.3       1 RES1   0.0000
    31 N      104.7601 102.5018  78.9429   N.pl3     1 RES1   0.0000
    32 H1     103.7655 100.7652  82.9291   H         1 RES1   0.0000
    33 H2     100.9883  99.4506  77.1648   H         1 RES1   0.0000
    34 H3     100.9120  97.4386  79.6028   H         1 RES1   0.0000
    35 H4     100.6022  99.5745  81.6288   H         1 RES1   0.0000
    36 H5      98.3570  99.9489  80.9858   H         1 RES1   0.0000
    37 H6      98.3207  97.0498  79.9599   H         1 RES1   0.0000
    38 H7      96.2846  97.6320  79.0109   H         1 RES1   0.0000
    39 H8      97.0389  99.0919  78.2863   H         1 RES1   0.0000
    40 H9      94.9879 101.3388  78.7852   H         1 RES1   0.0000
    41 H10     91.5996 100.8067  78.8425   H         1 RES1   0.0000
    42 H11     90.1728  96.8005  82.1482   H         1 RES1   0.0000
    43 H12     91.3788  98.6634  82.5991   H         1 RES1   0.0000
    44 H13     97.7710  98.9938  82.9088   H         1 RES1   0.0000
    45 H14     99.7787  97.3323  82.5970   H         1 RES1   0.0000
    46 H15    105.5021 103.0939  79.3437   H         1 RES1   0.0000
    47 H16    104.5652 102.5360  77.9321   H         1 RES1   0.0000
    48 ****   104.9838 102.1782  81.4728   Du        1 RES1   0.0000
    49 ****   102.0492  99.3904  81.9876   Du        1 RES1   0.0000
    50 ****   102.8903 101.1818  77.1560   Du        1 RES1   0.0000
    51 ****    99.1675  99.5449  78.7081   Du        1 RES1   0.0000
    52 ****    99.3630  98.0266  78.1394   Du        1 RES1   0.0000
    53 ****    94.5361  99.5293  82.1961   Du        1 RES1   0.0000
    54 ****    92.9950  99.3577  81.4243   Du        1 RES1   0.0000
    55 ****    94.6446 101.8061  80.2683   Du        1 RES1   0.0000
    56 ****    93.4670 101.3017  79.2556   Du        1 RES1   0.0000
    57 ****    92.1483  99.5605  76.8675   Du        1 RES1   0.0000
    58 ****    91.4723  97.9880  77.1322   Du        1 RES1   0.0000
    59 ****    92.8550 100.7345  79.8197   Du        1 RES1   0.0000
    60 ****    91.3981 100.1616  80.2845   Du        1 RES1   0.0000
    61 ****    89.2034  99.9862  80.3132   Du        1 RES1   0.0000
    62 ****    89.3483  98.9003  78.9716   Du        1 RES1   0.0000
    63 ****    89.5754  96.3715  80.7363   Du        1 RES1   0.0000
    64 ****    88.8012  97.4577  81.6782   Du        1 RES1   0.0000
    65 ****    90.5949  99.9490  82.0817   Du        1 RES1   0.0000
    66 ****    92.0678  99.5707  81.4868   Du        1 RES1   0.0000
    67 ****    98.4015  97.5653  82.6068   Du        1 RES1   0.0000
    68 ****    96.9820  98.0139  81.9358   Du        1 RES1   0.0000
    69 ****   101.3216  97.6600  82.4058   Du        1 RES1   0.0000
    70 ****   100.5192  96.7374  81.3233   Du        1 RES1   0.0000
@<TRIPOS>BOND
     1     1     2   ar
     2     2     3   ar
     3     3     4   ar
     4     4     5   ar
     5     5     6   ar
     6     1     6   ar
     7     5     7   ar
     8     7     8   ar
     9     8     9   ar
    10     4     9   ar
    11     7    10    1
    12    10    11    1
    13    11    12    1
    14    12    13    1
    15    13    14    1
    16    10    14    1
    17    13    15    1
    18    15    16    1
    19    16    17    1
    20    17    18    2
    21    17    19    1
    22    17    20    1
    23    20    21    1
    24    21    22    2
    25    21    23    1
    26    21    24    1
    27    24    25    1
    28    25    26    2
    29    25    27    1
    30    25    28    1
    31    12    29    1
    32    11    30    1
    33     3    31    1
    34     1    32    1
    35     8    33    1
    36    10    34    1
    37    11    35    1
    38    12    36    1
    39    13    37    1
    40    15    38    1
    41    15    39    1
    42    19    40    1
    43    23    41    1
    44    27    42    1
    45    28    43    1
    46    29    44    1
    47    30    45    1
    48    31    46    1
    49    31    47    1
    50     2    48    1
    51     6    49    1
    52     9    50    1
    53    14    51    1
    54    14    52    1
    55    18    53    1
    56    18    54    1
    57    19    55    1
    58    19    56    1
    59    22    57    1
    60    22    58    1
    61    23    59    1
    62    23    60    1
    63    26    61    1
    64    26    62    1
    65    27    63    1
    66    27    64    1
    67    28    65    1
    68    28    66    1
    69    29    67    1
    70    29    68    1
    71    30    69    1
    72    30    70    1
@<TRIPOS>SUBSTRUCTURE
     1 RES1        1 GROUP             0 ****  ****    0  
@<TRIPOS>MOLECULE
43.0517
    70    72     1     0     0
SMALL
NO_CHARGES
****
Generated from the CSD

@<TRIPOS>ATOM
     1 C      100.1827  95.9339  81.6052   C.ar      1 RES1   0.0000
     2 N      100.6890  95.2067  82.6278   N.ar      1 RES1   0.0000
     3 C       99.8904  94.6268  83.5482   C.ar      1 RES1   0.0000
     4 C       98.5180  94.8077  83.4014   C.ar      1 RES1   0.0000
     5 C       98.0275  95.5611  82.3463   C.ar      1 RES1   0.0000
     6 N       98.8548  96.1224  81.4484   N.ar      1 RES1   0.0000
     7 N       96.6891  95.5637  82.4696   N.ar      1 RES1   0.0000
     8 C       96.3391  94.8336  83.5482   C.ar      1 RES1   0.0000
     9 N       97.4690  94.3729  84.1236   N.ar      1 RES1   0.0000
    10 C       95.8137  96.1884  81.6340   C.3       1 RES1   0.0000
    11 C       94.7456  96.9996  82.4039   C.3       1 RES1   0.0000
    12 C       94.9325  98.4355  81.8712   C.3       1 RES1   0.0000
    13 C       95.5727  98.1727  80.4975   C.3       1 RES1   0.0000
    14 O       96.5118  97.1496  80.8328   O.3       1 RES1   0.0000
    15 C       96.2884  99.4090  79.9195   C.3       1 RES1   0.0000
    16 O       96.9809  99.0310  78.7260   O.3       1 RES1   0.0000
    17 P       97.5195 100.1194  77.6851   P.3       1 RES1   0.0000
    18 O       98.9562 100.4014  77.9615   O.2       1 RES1   0.0000
    19 O       97.3694  99.5506  76.1972   O.3       1 RES1   0.0000
    20 O       96.6716 101.4684  77.8415   O.3       1 RES1   0.0000
    21 P       97.1440 102.5729  76.7823   P.3       1 RES1   0.0000
    22 O       98.6099 102.4452  76.5476   O.2       1 RES1   0.0000
    23 O       96.8326 104.0232  77.3817   O.3       1 RES1   0.0000
    24 O       96.3504 102.3794  75.4045   O.3       1 RES1   0.0000
    25 P       94.7653 102.4468  75.6214   P.3       1 RES1   0.0000
    26 O       94.4596 102.7271  77.0525   O.2       1 RES1   0.0000
    27 O       94.1368 103.5997  74.7071   O.3       1 RES1   0.0000
    28 O       94.1161 101.0418  75.2169   O.3       1 RES1   0.0000
    29 O       93.7067  99.1683  81.7626   O.3       1 RES1   0.0000
    30 O       93.4502  96.4907  82.0617   O.3       1 RES1   0.0000
    31 N      100.3962  93.9018  84.5690   N.pl3     1 RES1   0.0000
    32 H1     100.8643  96.3791  80.8894   H         1 RES1   0.0000
    33 H2      95.3282  94.6485  83.8936   H         1 RES1   0.0000
    34 H3      95.3136  95.4673  80.9692   H         1 RES1   0.0000
    35 H4      94.8969  96.9557  83.4938   H         1 RES1   0.0000
    36 H5      95.6551  98.9680  82.5089   H         1 RES1   0.0000
    37 H6      94.8173  97.7850  79.7964   H         1 RES1   0.0000
    38 H7      96.9994  99.8143  80.6551   H         1 RES1   0.0000
    39 H8      95.5375 100.1759  79.6765   H         1 RES1   0.0000
    40 H9      98.1991  99.1857  75.9128   H         1 RES1   0.0000
    41 H10     97.5309 104.6212  77.1423   H         1 RES1   0.0000
    42 H11     93.6525 103.2084  73.9900   H         1 RES1   0.0000
    43 H12     94.8004 100.3886  75.1295   H         1 RES1   0.0000
    44 H13     92.9647  98.6021  81.9422   H         1 RES1   0.0000
    45 H14     92.7703  96.9363  82.5534   H         1 RES1   0.0000
    46 H15    101.4150  93.7789  84.6616   H         1 RES1   0.0000
    47 H16     99.7620  93.4704  85.2564   H         1 RES1   0.0000
    48 ****   101.6800  95.0963  82.7034   Du        1 RES1   0.0000
    49 ****    98.4978  96.6634  80.6870   Du        1 RES1   0.0000
    50 ****    97.5186  93.8057  84.9457   Du        1 RES1   0.0000
    51 ****    97.2743  97.5389  81.3496   Du        1 RES1   0.0000
    52 ****    96.8595  96.7163  80.0013   Du        1 RES1   0.0000
    53 ****    99.3533 100.1536  78.8452   Du        1 RES1   0.0000
    54 ****    99.5233 100.8384  77.2633   Du        1 RES1   0.0000
    55 ****    97.1030 100.2925  75.5819   Du        1 RES1   0.0000
    56 ****    96.6687  98.8372  76.1820   Du        1 RES1   0.0000
    57 ****    99.1976 103.2523  76.6049   Du        1 RES1   0.0000
    58 ****    99.0060 101.5525  76.3327   Du        1 RES1   0.0000
    59 ****    96.7698 103.9657  78.3780   Du        1 RES1   0.0000
    60 ****    95.9658 104.3577  77.0118   Du        1 RES1   0.0000
    61 ****    93.5250 102.9501  77.3297   Du        1 RES1   0.0000
    62 ****    95.1889 102.6923  77.7357   Du        1 RES1   0.0000
    63 ****    94.8710 104.1711  74.3404   Du        1 RES1   0.0000
    64 ****    93.5200 104.1622  75.2577   Du        1 RES1   0.0000
    65 ****    93.6331 101.1365  74.3464   Du        1 RES1   0.0000
    66 ****    93.4717 100.7561  75.9262   Du        1 RES1   0.0000
    67 ****    93.6238  99.5362  80.8365   Du        1 RES1   0.0000
    68 ****    93.7136  99.9211  82.4209   Du        1 RES1   0.0000
    69 ****    93.4171  95.5131  82.2693   Du        1 RES1   0.0000
    70 ****    93.2916  96.6294  81.0841   Du        1 RES1   0.0000
@<TRIPOS>BOND
     1     1     2   ar
     2     2     3   ar
     3     3     4   ar
     4     4     5   ar
     5     5     6   ar
     6     1     6   ar
     7     5     7   ar
     8     7     8   ar
     9     8     9   ar
    10     4     9   ar
    11     7    10    1
    12    10    11    1
    13    11    12    1
    14    12    13    1
    15    13    14    1
    16    10    14    1
    17    13    15    1
    18    15    16    1
    19    16    17    1
    20    17    18    2
    21    17    19    1
    22    17    20    1
    23    20    21    1
    24    21    22    2
    25    21    23    1
    26    21    24    1
    27    24    25    1
    28    25    26    2
    29    25    27    1
    30    25    28    1
    31    12    29    1
    32    11    30    1
    33     3    31    1
    34     1    32    1
    35     8    33    1
    36    10    34    1
    37    11    35    1
    38    12    36    1
    39    13    37    1
    40    15    38    1
    41    15    39    1
    42    19    40    1
    43    23    41    1
    44    27    42    1
    45    28    43    1
    46    29    44    1
    47    30    45    1
    48    31    46    1
    49    31    47    1
    50     2    48    1
    51     6    49    1
    52     9    50    1
    53    14    51    1
    54    14    52    1
    55    18    53    1
    56    18    54    1
    57    19    55    1
    58    19    56    1
    59    22    57    1
    60    22    58    1
    61    23    59    1
    62    23    60    1
    63    26    61    1
    64    26    62    1
    65    27    63    1
    66    27    64    1
    67    28    65    1
    68    28    66    1
    69    29    67    1
    70    29    68    1
    71    30    69    1
    72    30    70    1
@<TRIPOS>SUBSTRUCTURE
     1 RES1        1 GROUP             0 ****  ****    0  
@<TRIPOS>MOLECULE
43.0246
    70    72     1     0     0
SMALL
NO_CHARGES
****
Generated from the CSD

@<TRIPOS>ATOM
     1 C      100.2220  97.9622  83.0731   C.ar      1 RES1   0.0000
     2 N      100.6597  97.1040  84.0232   N.ar      1 RES1   0.0000
     3 C       99.9151  96.0527  84.4256   C.ar      1 RES1   0.0000
     4 C       98.6728  95.8865  83.8199   C.ar      1 RES1   0.0000
     5 C       98.2483  96.7835  82.8522   C.ar      1 RES1   0.0000
     6 N       99.0190  97.8183  82.4767   N.ar      1 RES1   0.0000
     7 N       97.0282  96.3755  82.4632   N.ar      1 RES1   0.0000
     8 C       96.6933  95.2598  83.1427   C.ar      1 RES1   0.0000
     9 N       97.7071  94.9635  83.9821   N.ar      1 RES1   0.0000
    10 C       96.2504  96.9769  81.5208   C.3       1 RES1   0.0000
    11 C       96.1656  98.5081  81.7208   C.3       1 RES1   0.0000
    12 C       96.7015  99.0741  80.3893   C.3       1 RES1   0.0000
    13 C       96.4232  97.9080  79.4255   C.3       1 RES1   0.0000
    14 O       96.8351  96.7979  80.2250   O.3       1 RES1   0.0000
    15 C       97.2499  97.9885  78.1274   C.3       1 RES1   0.0000
    16 O       96.7028  97.0775  77.1695   O.3       1 RES1   0.0000
    17 P       95.2982  97.3508  76.4550   P.3       1 RES1   0.0000
    18 O       94.7527  98.6579  76.9174   O.2       1 RES1   0.0000
    19 O       95.5093  97.3973  74.8697   O.3       1 RES1   0.0000
    20 O       94.2732  96.1809  76.8347   O.3       1 RES1   0.0000
    21 P       92.8114  96.4837  76.2545   P.3       1 RES1   0.0000
    22 O       92.8029  97.8195  75.5943   O.2       1 RES1   0.0000
    23 O       91.7702  96.4918  77.4692   O.3       1 RES1   0.0000
    24 O       92.3990  95.3500  75.2011   O.3       1 RES1   0.0000
    25 P       92.0749  95.9712  73.7612   P.3       1 RES1   0.0000
    26 O       91.0810  97.0732  73.8952   O.2       1 RES1   0.0000
    27 O       93.4147  96.5406  73.0973   O.3       1 RES1   0.0000
    28 O       91.4638  94.8319  72.8191   O.3       1 RES1   0.0000
    29 O       96.0482 100.2805  79.9776   O.3       1 RES1   0.0000
    30 O       94.7921  98.8687  81.9150   O.3       1 RES1   0.0000
    31 N      100.3521  95.1970  85.3744   N.pl3     1 RES1   0.0000
    32 H1     100.8568  98.7911  82.7815   H         1 RES1   0.0000
    33 H2      95.7721  94.6984  83.0349   H         1 RES1   0.0000
    34 H3      95.2340  96.5541  81.5139   H         1 RES1   0.0000
    35 H4      96.7738  98.8498  82.5729   H         1 RES1   0.0000
    36 H5      97.7895  99.2226  80.4697   H         1 RES1   0.0000
    37 H6      95.3455  97.8457  79.2089   H         1 RES1   0.0000
    38 H7      98.3011  97.7349  78.3307   H         1 RES1   0.0000
    39 H8      97.1916  99.0127  77.7293   H         1 RES1   0.0000
    40 H9      95.4623  96.5159  74.5183   H         1 RES1   0.0000
    41 H10     91.0687  95.8771  77.2888   H         1 RES1   0.0000
    42 H11     93.3933  97.4901  73.1018   H         1 RES1   0.0000
    43 H12     90.6202  95.1137  72.4854   H         1 RES1   0.0000
    44 H13     96.5381 101.0400  80.2718   H         1 RES1   0.0000
    45 H14     94.4690  98.5377  82.7448   H         1 RES1   0.0000
    46 H15    101.2746  95.3362  85.8118   H         1 RES1   0.0000
    47 H16     99.7619  94.4030  85.6611   H         1 RES1   0.0000
    48 ****   101.5576  97.2524  84.4377   Du        1 RES1   0.0000
    49 ****    98.7109  98.4625  81.7766   Du        1 RES1   0.0000
    50 ****    97.7360  94.1906  84.6161   Du        1 RES1   0.0000
    51 ****    97.8323  96.7779  80.2977   Du        1 RES1   0.0000
    52 ****    96.5134  95.9431  79.8179   Du        1 RES1   0.0000
    53 ****    94.5813  99.3896  76.2577   Du        1 RES1   0.0000
    54 ****    94.5581  98.8035  77.8874   Du        1 RES1   0.0000
    55 ****    96.4053  97.7908  74.6641   Du        1 RES1   0.0000
    56 ****    94.7948  97.9603  74.4545   Du        1 RES1   0.0000
    57 ****    91.9861  98.1324  75.1096   Du        1 RES1   0.0000
    58 ****    93.6139  98.4030  75.6358   Du        1 RES1   0.0000
    59 ****    91.3894  97.4103  77.5759   Du        1 RES1   0.0000
    60 ****    92.2385  96.2252  78.3116   Du        1 RES1   0.0000
    61 ****    90.3650  97.0189  74.5911   Du        1 RES1   0.0000
    62 ****    91.1300  97.8671  73.2890   Du        1 RES1   0.0000
    63 ****    93.4843  96.2136  72.1548   Du        1 RES1   0.0000
    64 ****    94.2061  96.2230  73.6196   Du        1 RES1   0.0000
    65 ****    91.3490  93.9900  73.3463   Du        1 RES1   0.0000
    66 ****    92.0853  94.6639  72.0539   Du        1 RES1   0.0000
    67 ****    95.1294 100.3084  80.3713   Du        1 RES1   0.0000
    68 ****    95.9839 100.2962  78.9798   Du        1 RES1   0.0000
    69 ****    94.2441  98.4827  81.1729   Du        1 RES1   0.0000
    70 ****    94.7107  99.8653  81.9059   Du        1 RES1   0.0000
@<TRIPOS>BOND
     1     1     2   ar
     2     2     3   ar
     3     3     4   ar
     4     4     5   ar
     5     5     6   ar
     6     1     6   ar
     7     5     7   ar
     8     7     8   ar
     9     8     9   ar
    10     4     9   ar
    11     7    10    1
    12    10    11    1
    13    11    12    1
    14    12    13    1
    15    13    14    1
    16    10    14    1
    17    13    15    1
    18    15    16    1
    19    16    17    1
    20    17    18    2
    21    17    19    1
    22    17    20    1
    23    20    21    1
    24    21    22    2
    25    21    23    1
    26    21    24    1
    27    24    25    1
    28    25    26    2
    29    25    27    1
    30    25    28    1
    31    12    29    1
    32    11    30    1
    33     3    31    1
    34     1    32    1
    35     8    33    1
    36    10    34    1
    37    11    35    1
    38    12    36    1
    39    13    37    1
    40    15    38    1
    41    15    39    1
    42    19    40    1
    43    23    41    1
    44    27    42    1
    45    28    43    1
    46    29    44    1
    47    30    45    1
    48    31    46    1
    49    31    47    1
    50     2    48    1
    51     6    49    1
    52     9    50    1
    53    14    51    1
    54    14    52    1
    55    18    53    1
    56    18    54    1
    57    19    55    1
    58    19    56    1
    59    22    57    1
    60    22    58    1
    61    23    59    1
    62    23    60    1
    63    26    61    1
    64    26    62    1
    65    27    63    1
    66    27    64    1
    67    28    65    1
    68    28    66    1
    69    29    67    1
    70    29    68    1
    71    30    69    1
    72    30    70    1
@<TRIPOS>SUBSTRUCTURE
     1 RES1        1 GROUP             0 ****  ****    0  
@<TRIPOS>MOLECULE
42.7044
    70    72     1     0     0
SMALL
NO_CHARGES
****
Generated from the CSD

@<TRIPOS>ATOM
     1 C      101.6172 100.1154  77.2194   C.ar      1 RES1   0.0000
     2 N      102.6218 101.0017  77.4090   N.ar      1 RES1   0.0000
     3 C      103.2992 101.0661  78.5745   C.ar      1 RES1   0.0000
     4 C      102.9206 100.1788  79.5781   C.ar      1 RES1   0.0000
     5 C      101.8850  99.2843  79.3574   C.ar      1 RES1   0.0000
     6 N      101.2345  99.2492  78.1821   N.ar      1 RES1   0.0000
     7 N      101.7462  98.5749  80.4905   N.ar      1 RES1   0.0000
     8 C      102.6610  98.9886  81.3908   C.ar      1 RES1   0.0000
     9 N      103.3804  99.9811  80.8272   N.ar      1 RES1   0.0000
    10 C      100.8388  97.5814  80.7018   C.3       1 RES1   0.0000
    11 C      100.7805  97.1465  82.1847   C.3       1 RES1   0.0000
    12 C       99.3068  97.3887  82.5721   C.3       1 RES1   0.0000
    13 C       98.6115  97.3062  81.2025   C.3       1 RES1   0.0000
    14 O       99.5218  98.0562  80.3963   O.3       1 RES1   0.0000
    15 C       97.2118  97.9507  81.1974   C.3       1 RES1   0.0000
    16 O       96.5507  97.6192  79.9725   O.3       1 RES1   0.0000
    17 P       97.0281  98.2204  78.5694   P.3       1 RES1   0.0000
    18 O       98.0223  99.3044  78.8068   O.2       1 RES1   0.0000
    19 O       97.7070  97.0620  77.6992   O.3       1 RES1   0.0000
    20 O       95.7635  98.8179  77.7903   O.3       1 RES1   0.0000
    21 P       95.2871  97.8319  76.6216   P.3       1 RES1   0.0000
    22 O       94.9261  96.5076  77.2014   O.2       1 RES1   0.0000
    23 O       96.4941  97.6414  75.5888   O.3       1 RES1   0.0000
    24 O       94.0243  98.4592  75.8619   O.3       1 RES1   0.0000
    25 P       93.5002  97.4977  74.6936   P.3       1 RES1   0.0000
    26 O       94.5998  97.2291  73.7248   O.2       1 RES1   0.0000
    27 O       92.9867  96.1145  75.3129   O.3       1 RES1   0.0000
    28 O       92.2922  98.2103  73.9243   O.3       1 RES1   0.0000
    29 O       98.7931  96.4221  83.4959   O.3       1 RES1   0.0000
    30 O      101.1095  95.7538  82.2662   O.3       1 RES1   0.0000
    31 N      104.3013 101.9514  78.7635   N.pl3     1 RES1   0.0000
    32 H1     101.1035 100.1002  76.2650   H         1 RES1   0.0000
    33 H2     102.7960  98.5945  82.3917   H         1 RES1   0.0000
    34 H3     101.0551  96.7037  80.0734   H         1 RES1   0.0000
    35 H4     101.4615  97.7369  82.8176   H         1 RES1   0.0000
    36 H5      99.1991  98.4099  82.9694   H         1 RES1   0.0000
    37 H6      98.5702  96.2599  80.8621   H         1 RES1   0.0000
    38 H7      97.2967  99.0433  81.2957   H         1 RES1   0.0000
    39 H8      96.6313  97.5519  82.0429   H         1 RES1   0.0000
    40 H9      98.1837  97.4490  76.9743   H         1 RES1   0.0000
    41 H10     97.3190  97.7952  76.0342   H         1 RES1   0.0000
    42 H11     93.3883  95.3897  74.8488   H         1 RES1   0.0000
    43 H12     92.5652  98.4354  73.0426   H         1 RES1   0.0000
    44 H13     98.7262  95.5696  83.0811   H         1 RES1   0.0000
    45 H14    102.0510  95.6274  82.2627   H         1 RES1   0.0000
    46 H15    104.5675 102.6007  78.0091   H         1 RES1   0.0000
    47 H16    104.8009 101.9772  79.6639   H         1 RES1   0.0000
    48 ****   102.8686 101.6248  76.6668   Du        1 RES1   0.0000
    49 ****   100.4892  98.6012  78.0251   Du        1 RES1   0.0000
    50 ****   104.1271 100.4836  81.2630   Du        1 RES1   0.0000
    51 ****    99.4491  99.0301  80.6112   Du        1 RES1   0.0000
    52 ****    99.3210  97.9128  79.4272   Du        1 RES1   0.0000
    53 ****    98.5426  99.3274  79.6605   Du        1 RES1   0.0000
    54 ****    98.1693 100.0089  78.1126   Du        1 RES1   0.0000
    55 ****    96.9981  96.4525  77.3445   Du        1 RES1   0.0000
    56 ****    98.3385  96.5405  78.2730   Du        1 RES1   0.0000
    57 ****    94.7299  96.4263  78.1786   Du        1 RES1   0.0000
    58 ****    94.8801  95.7001  76.6133   Du        1 RES1   0.0000
    59 ****    96.3950  98.2927  74.8364   Du        1 RES1   0.0000
    60 ****    96.4794  96.7093  75.2269   Du        1 RES1   0.0000
    61 ****    95.1162  96.3745  73.7789   Du        1 RES1   0.0000
    62 ****    94.8214  97.9035  73.0204   Du        1 RES1   0.0000
    63 ****    91.9925  96.0579  75.2224   Du        1 RES1   0.0000
    64 ****    93.2365  96.0697  76.2802   Du        1 RES1   0.0000
    65 ****    92.0298  99.0418  74.4140   Du        1 RES1   0.0000
    66 ****    91.5108  97.5877  73.8821   Du        1 RES1   0.0000
    67 ****    97.8865  96.7105  83.8041   Du        1 RES1   0.0000
    68 ****    99.4078  96.3586  84.2820   Du        1 RES1   0.0000
    69 ****   100.7122  95.2771  81.4821   Du        1 RES1   0.0000
    70 ****   100.7317  95.3770  83.1119   Du        1 RES1   0.0000
@<TRIPOS>BOND
     1     1     2   ar
     2     2     3   ar
     3     3     4   ar
     4     4     5   ar
     5     5     6   ar
     6     1     6   ar
     7     5     7   ar
     8     7     8   ar
     9     8     9   ar
    10     4     9   ar
    11     7    10    1
    12    10    11    1
    13    11    12    1
    14    12    13    1
    15    13    14    1
    16    10    14    1
    17    13    15    1
    18    15    16    1
    19    16    17    1
    20    17    18    2
    21    17    19    1
    22    17    20    1
    23    20    21    1
    24    21    22    2
    25    21    23    1
    26    21    24    1
    27    24    25    1
    28    25    26    2
    29    25    27    1
    30    25    28    1
    31    12    29    1
    32    11    30    1
    33     3    31    1
    34     1    32    1
    35     8    33    1
    36    10    34    1
    37    11    35    1
    38    12    36    1
    39    13    37    1
    40    15    38    1
    41    15    39    1
    42    19    40    1
    43    23    41    1
    44    27    42    1
    45    28    43    1
    46    29    44    1
    47    30    45    1
    48    31    46    1
    49    31    47    1
    50     2    48    1
    51     6    49    1
    52     9    50    1
    53    14    51    1
    54    14    52    1
    55    18    53    1
    56    18    54    1
    57    19    55    1
    58    19    56    1
    59    22    57    1
    60    22    58    1
    61    23    59    1
    62    23    60    1
    63    26    61    1
    64    26    62    1
    65    27    63    1
    66    27    64    1
    67    28    65    1
    68    28    66    1
    69    29    67    1
    70    29    68    1
    71    30    69    1
    72    30    70    1
@<TRIPOS>SUBSTRUCTURE
     1 RES1        1 GROUP             0 ****  ****    0  
@<TRIPOS>MOLECULE
40.2281
    70    72     1     0     0
SMALL
NO_CHARGES
****
Generated from the CSD

@<TRIPOS>ATOM
     1 C      101.9049 100.5364  79.6653   C.ar      1 RES1   0.0000
     2 N      103.0619 100.8664  80.2842   N.ar      1 RES1   0.0000
     3 C      103.6850 100.0128  81.1235   C.ar      1 RES1   0.0000
     4 C      103.0859  98.7728  81.3269   C.ar      1 RES1   0.0000
     5 C      101.8983  98.4632  80.6827   C.ar      1 RES1   0.0000
     6 N      101.3080  99.3396  79.8526   N.ar      1 RES1   0.0000
     7 N      101.5647  97.2215  81.0745   N.ar      1 RES1   0.0000
     8 C      102.5041  96.7534  81.9213   C.ar      1 RES1   0.0000
     9 N      103.4382  97.7140  82.0790   N.ar      1 RES1   0.0000
    10 C      100.4625  96.5293  80.6735   C.3       1 RES1   0.0000
    11 C       99.7491  95.8285  81.8533   C.3       1 RES1   0.0000
    12 C       98.3241  96.4186  81.8126   C.3       1 RES1   0.0000
    13 C       98.2094  96.8433  80.3386   C.3       1 RES1   0.0000
    14 O       99.4933  97.4347  80.1313   O.3       1 RES1   0.0000
    15 C       97.0850  97.8679  80.0924   C.3       1 RES1   0.0000
    16 O       96.5738  97.6894  78.7681   O.3       1 RES1   0.0000
    17 P       96.7002  98.8321  77.6561   P.3       1 RES1   0.0000
    18 O       95.7173  99.9143  77.9433   O.2       1 RES1   0.0000
    19 O       98.1798  99.4403  77.6861   O.3       1 RES1   0.0000
    20 O       96.3972  98.2053  76.2144   O.3       1 RES1   0.0000
    21 P       94.8982  97.6472  76.1314   P.3       1 RES1   0.0000
    22 O       93.9402  98.7357  76.4741   O.2       1 RES1   0.0000
    23 O       94.7370  96.4546  77.1857   O.3       1 RES1   0.0000
    24 O       94.6019  97.1023  74.6547   O.3       1 RES1   0.0000
    25 P       93.0923  96.5892  74.5063   P.3       1 RES1   0.0000
    26 O       92.8618  95.4217  75.4028   O.2       1 RES1   0.0000
    27 O       92.0755  97.7637  74.8896   O.3       1 RES1   0.0000
    28 O       92.8325  96.1414  72.9926   O.3       1 RES1   0.0000
    29 O       97.3070  95.4808  82.1834   O.3       1 RES1   0.0000
    30 O       99.7269  94.4177  81.6014   O.3       1 RES1   0.0000
    31 N      104.8393 100.3430  81.7415   N.pl3     1 RES1   0.0000
    32 H1     101.4425 101.2550  78.9983   H         1 RES1   0.0000
    33 H2     102.5094  95.7774  82.3933   H         1 RES1   0.0000
    34 H3     100.7184  95.7815  79.9072   H         1 RES1   0.0000
    35 H4     100.2394  96.0361  82.8173   H         1 RES1   0.0000
    36 H5      98.2844  97.3158  82.4497   H         1 RES1   0.0000
    37 H6      98.0879  95.9561  79.6980   H         1 RES1   0.0000
    38 H7      97.4712  98.8913  80.2122   H         1 RES1   0.0000
    39 H8      96.2777  97.6947  80.8199   H         1 RES1   0.0000
    40 H9      98.7462  98.9220  77.1266   H         1 RES1   0.0000
    41 H10     93.8473  96.1231  77.1549   H         1 RES1   0.0000
    42 H11     92.4375  98.5988  74.6186   H         1 RES1   0.0000
    43 H12     92.2648  95.3798  72.9792   H         1 RES1   0.0000
    44 H13     96.8638  95.1493  81.4107   H         1 RES1   0.0000
    45 H14     98.8408  94.1166  81.4381   H         1 RES1   0.0000
    46 H15    105.2680 101.2658  81.5789   H         1 RES1   0.0000
    47 H16    105.2925  99.6706  82.3767   H         1 RES1   0.0000
    48 ****   103.4656 101.7656  80.1154   Du        1 RES1   0.0000
    49 ****   100.4524  99.1124  79.3875   Du        1 RES1   0.0000
    50 ****   104.2526  97.6501  82.6558   Du        1 RES1   0.0000
    51 ****    99.5457  98.3159  80.6012   Du        1 RES1   0.0000
    52 ****    99.6565  97.5679  79.1538   Du        1 RES1   0.0000
    53 ****    95.2718 100.3980  77.1900   Du        1 RES1   0.0000
    54 ****    95.5032 100.1571  78.8895   Du        1 RES1   0.0000
    55 ****    98.5290  99.4217  78.6229   Du        1 RES1   0.0000
    56 ****    98.1589 100.3843  77.3567   Du        1 RES1   0.0000
    57 ****    94.1726  99.6876  76.2744   Du        1 RES1   0.0000
    58 ****    93.0648  98.5143  76.9039   Du        1 RES1   0.0000
    59 ****    94.9349  96.7936  78.1054   Du        1 RES1   0.0000
    60 ****    95.3749  95.7191  76.9572   Du        1 RES1   0.0000
    61 ****    92.1826  95.4796  76.1345   Du        1 RES1   0.0000
    62 ****    93.3863  94.5803  75.2729   Du        1 RES1   0.0000
    63 ****    91.9306  97.7689  75.8790   Du        1 RES1   0.0000
    64 ****    91.2026  97.6129  74.4256   Du        1 RES1   0.0000
    65 ****    93.7042  95.9146  72.5582   Du        1 RES1   0.0000
    66 ****    92.3965  96.8905  72.4939   Du        1 RES1   0.0000
    67 ****    96.6412  95.9342  82.7760   Du        1 RES1   0.0000
    68 ****    97.7261  94.7178  82.6756   Du        1 RES1   0.0000
    69 ****   100.0945  93.9371  82.3976   Du        1 RES1   0.0000
    70 ****   100.2929  94.2189  80.8014   Du        1 RES1   0.0000
@<TRIPOS>BOND
     1     1     2   ar
     2     2     3   ar
     3     3     4   ar
     4     4     5   ar
     5     5     6   ar
     6     1     6   ar
     7     5     7   ar
     8     7     8   ar
     9     8     9   ar
    10     4     9   ar
    11     7    10    1
    12    10    11    1
    13    11    12    1
    14    12    13    1
    15    13    14    1
    16    10    14    1
    17    13    15    1
    18    15    16    1
    19    16    17    1
    20    17    18    2
    21    17    19    1
    22    17    20    1
    23    20    21    1
    24    21    22    2
    25    21    23    1
    26    21    24    1
    27    24    25    1
    28    25    26    2
    29    25    27    1
    30    25    28    1
    31    12    29    1
    32    11    30    1
    33     3    31    1
    34     1    32    1
    35     8    33    1
    36    10    34    1
    37    11    35    1
    38    12    36    1
    39    13    37    1
    40    15    38    1
    41    15    39    1
    42    19    40    1
    43    23    41    1
    44    27    42    1
    45    28    43    1
    46    29    44    1
    47    30    45    1
    48    31    46    1
    49    31    47    1
    50     2    48    1
    51     6    49    1
    52     9    50    1
    53    14    51    1
    54    14    52    1
    55    18    53    1
    56    18    54    1
    57    19    55    1
    58    19    56    1
    59    22    57    1
    60    22    58    1
    61    23    59    1
    62    23    60    1
    63    26    61    1
    64    26    62    1
    65    27    63    1
    66    27    64    1
    67    28    65    1
    68    28    66    1
    69    29    67    1
    70    29    68    1
    71    30    69    1
    72    30    70    1
@<TRIPOS>SUBSTRUCTURE
     1 RES1        1 GROUP             0 ****  ****    0  
@<TRIPOS>MOLECULE
39.177
    70    72     1     0     0
SMALL
NO_CHARGES
****
Generated from the CSD

@<TRIPOS>ATOM
     1 C      101.9321 100.1771  77.1392   C.ar      1 RES1   0.0000
     2 N      102.6993 101.2497  77.4418   N.ar      1 RES1   0.0000
     3 C      102.8437 101.6817  78.7122   C.ar      1 RES1   0.0000
     4 C      102.1682 100.9748  79.7031   C.ar      1 RES1   0.0000
     5 C      101.3859  99.8821  79.3636   C.ar      1 RES1   0.0000
     6 N      101.2675  99.4811  78.0866   N.ar      1 RES1   0.0000
     7 N      100.8625  99.4169  80.5108   N.ar      1 RES1   0.0000
     8 C      101.3012 100.1708  81.5393   C.ar      1 RES1   0.0000
     9 N      102.1021 101.1337  81.0378   N.ar      1 RES1   0.0000
    10 C      100.0317  98.3442  80.6296   C.3       1 RES1   0.0000
    11 C       99.4173  98.2325  82.0445   C.3       1 RES1   0.0000
    12 C       97.8979  98.2814  81.7808   C.3       1 RES1   0.0000
    13 C       97.8222  97.7843  80.3271   C.3       1 RES1   0.0000
    14 O       98.9151  98.4968  79.7448   O.3       1 RES1   0.0000
    15 C       96.4952  98.1491  79.6337   C.3       1 RES1   0.0000
    16 O       96.5600  97.7463  78.2624   O.3       1 RES1   0.0000
    17 P       95.5205  98.2906  77.1754   P.3       1 RES1   0.0000
    18 O       96.2475  98.6272  75.9192   O.2       1 RES1   0.0000
    19 O       94.4318  97.1590  76.8690   O.3       1 RES1   0.0000
    20 O       94.7989  99.6028  77.7419   O.3       1 RES1   0.0000
    21 P       94.2990 100.5469  76.5487   P.3       1 RES1   0.0000
    22 O       93.4654 101.6514  77.1013   O.2       1 RES1   0.0000
    23 O       93.4136  99.6740  75.5418   O.3       1 RES1   0.0000
    24 O       95.5607 101.1513  75.7686   O.3       1 RES1   0.0000
    25 P       96.4349 102.1070  76.7101   P.3       1 RES1   0.0000
    26 O       95.6377 103.3040  77.0997   O.2       1 RES1   0.0000
    27 O       96.8844 101.3155  78.0260   O.3       1 RES1   0.0000
    28 O       97.7369 102.5864  75.9139   O.3       1 RES1   0.0000
    29 O       97.1370  97.4578  82.6718   O.3       1 RES1   0.0000
    30 O       99.7988  96.9723  82.6107   O.3       1 RES1   0.0000
    31 N      103.6089 102.7527  79.0136   N.pl3     1 RES1   0.0000
    32 H1     101.8482  99.8667  76.1040   H         1 RES1   0.0000
    33 H2     101.0547 100.0297  82.5856   H         1 RES1   0.0000
    34 H3     100.5540  97.4065  80.3847   H         1 RES1   0.0000
    35 H4      99.7349  99.0575  82.7012   H         1 RES1   0.0000
    36 H5      97.5559  99.3272  81.8216   H         1 RES1   0.0000
    37 H6      98.0075  96.6996  80.2885   H         1 RES1   0.0000
    38 H7      96.3179  99.2330  79.6998   H         1 RES1   0.0000
    39 H8      95.6727  97.6134  80.1312   H         1 RES1   0.0000
    40 H9      93.7245  97.2214  77.5000   H         1 RES1   0.0000
    41 H10     92.8952 100.2516  74.9940   H         1 RES1   0.0000
    42 H11     96.7957 101.8815  78.7835   H         1 RES1   0.0000
    43 H12     98.1595 103.2913  76.3903   H         1 RES1   0.0000
    44 H13     96.2088  97.6417  82.5825   H         1 RES1   0.0000
    45 H14     99.7138  96.9863  83.5567   H         1 RES1   0.0000
    46 H15    104.1013 103.2638  78.2666   H         1 RES1   0.0000
    47 H16    103.7007 103.0591  79.9927   H         1 RES1   0.0000
    48 ****   103.1713 101.7346  76.7055   Du        1 RES1   0.0000
    49 ****   100.7042  98.6909  77.8450   Du        1 RES1   0.0000
    50 ****   102.5668 101.8437  81.5669   Du        1 RES1   0.0000
    51 ****    98.6823  99.4646  79.6490   Du        1 RES1   0.0000
    52 ****    99.1339  98.1161  78.8464   Du        1 RES1   0.0000
    53 ****    95.7371  98.7967  75.0762   Du        1 RES1   0.0000
    54 ****    97.2459  98.6837  75.9191   Du        1 RES1   0.0000
    55 ****    94.8598  96.2577  76.9358   Du        1 RES1   0.0000
    56 ****    94.0678  97.2876  75.9465   Du        1 RES1   0.0000
    57 ****    92.4827 101.5193  77.2309   Du        1 RES1   0.0000
    58 ****    93.8886 102.5247  77.3426   Du        1 RES1   0.0000
    59 ****    92.8059  99.0762  76.0647   Du        1 RES1   0.0000
    60 ****    94.0136  99.1183  74.9663   Du        1 RES1   0.0000
    61 ****    96.0996 104.1237  77.4385   Du        1 RES1   0.0000
    62 ****    94.6408 103.2876  77.0224   Du        1 RES1   0.0000
    63 ****    97.8384 101.0303  77.9334   Du        1 RES1   0.0000
    64 ****    96.3053 100.5088  78.1435   Du        1 RES1   0.0000
    65 ****    97.4714 102.9105  75.0059   Du        1 RES1   0.0000
    66 ****    98.3719 101.8194  75.8214   Du        1 RES1   0.0000
    67 ****    97.4201  97.6417  83.6131   Du        1 RES1   0.0000
    68 ****    97.3045  96.4960  82.4553   Du        1 RES1   0.0000
    69 ****   100.7502  96.7799  82.3702   Du        1 RES1   0.0000
    70 ****    99.2096  96.2547  82.2394   Du        1 RES1   0.0000
@<TRIPOS>BOND
     1     1     2   ar
     2     2     3   ar
     3     3     4   ar
     4     4     5   ar
     5     5     6   ar
     6     1     6   ar
     7     5     7   ar
     8     7     8   ar
     9     8     9   ar
    10     4     9   ar
    11     7    10    1
    12    10    11    1
    13    11    12    1
    14    12    13    1
    15    13    14    1
    16    10    14    1
    17    13    15    1
    18    15    16    1
    19    16    17    1
    20    17    18    2
    21    17    19    1
    22    17    20    1
    23    20    21    1
    24    21    22    2
    25    21    23    1
    26    21    24    1
    27    24    25    1
    28    25    26    2
    29    25    27    1
    30    25    28    1
    31    12    29    1
    32    11    30    1
    33     3    31    1
    34     1    32    1
    35     8    33    1
    36    10    34    1
    37    11    35    1
    38    12    36    1
    39    13    37    1
    40    15    38    1
    41    15    39    1
    42    19    40    1
    43    23    41    1
    44    27    42    1
    45    28    43    1
    46    29    44    1
    47    30    45    1
    48    31    46    1
    49    31    47    1
    50     2    48    1
    51     6    49    1
    52     9    50    1
    53    14    51    1
    54    14    52    1
    55    18    53    1
    56    18    54    1
    57    19    55    1
    58    19    56    1
    59    22    57    1
    60    22    58    1
    61    23    59    1
    62    23    60    1
    63    26    61    1
    64    26    62    1
    65    27    63    1
    66    27    64    1
    67    28    65    1
    68    28    66    1
    69    29    67    1
    70    29    68    1
    71    30    69    1
    72    30    70    1
@<TRIPOS>SUBSTRUCTURE
     1 RES1        1 GROUP             0 ****  ****    0  
@<TRIPOS>MOLECULE
38.1932
    70    72     1     0     0
SMALL
NO_CHARGES
****
Generated from the CSD

@<TRIPOS>ATOM
     1 C      101.2545 100.6778  77.3956   C.ar      1 RES1   0.0000
     2 N      102.4713 101.2621  77.4883   N.ar      1 RES1   0.0000
     3 C      103.2724 101.0649  78.5564   C.ar      1 RES1   0.0000
     4 C      102.7933 100.2315  79.5632   C.ar      1 RES1   0.0000
     5 C      101.5411  99.6495  79.4435   C.ar      1 RES1   0.0000
     6 N      100.7723  99.8688  78.3634   N.ar      1 RES1   0.0000
     7 N      101.3534  98.9169  80.5545   N.ar      1 RES1   0.0000
     8 C      102.4428  99.0158  81.3434   C.ar      1 RES1   0.0000
     9 N      103.3269  99.8310  80.7319   N.ar      1 RES1   0.0000
    10 C      100.2481  98.1748  80.8418   C.3       1 RES1   0.0000
    11 C       99.4907  98.7067  82.0808   C.3       1 RES1   0.0000
    12 C       98.0794  99.0097  81.5358   C.3       1 RES1   0.0000
    13 C       98.0112  98.0701  80.3199   C.3       1 RES1   0.0000
    14 O       99.3117  98.2634  79.7609   O.3       1 RES1   0.0000
    15 C       96.9144  98.4666  79.3126   C.3       1 RES1   0.0000
    16 O       95.6436  98.4292  79.9688   O.3       1 RES1   0.0000
    17 P       94.5575  99.5857  79.7659   P.3       1 RES1   0.0000
    18 O       94.0409 100.0193  81.0945   O.2       1 RES1   0.0000
    19 O       95.2406 100.8324  79.0319   O.3       1 RES1   0.0000
    20 O       93.3469  99.0270  78.8795   O.3       1 RES1   0.0000
    21 P       93.8800  98.3938  77.5084   P.3       1 RES1   0.0000
    22 O       94.7528  97.2231  77.8048   O.2       1 RES1   0.0000
    23 O       94.7333  99.5015  76.7308   O.3       1 RES1   0.0000
    24 O       92.6407  97.9369  76.6025   O.3       1 RES1   0.0000
    25 P       93.1263  97.2222  75.2543   P.3       1 RES1   0.0000
    26 O       93.9556  98.1634  74.4503   O.2       1 RES1   0.0000
    27 O       93.9877  95.9204  75.6053   O.3       1 RES1   0.0000
    28 O       91.8480  96.7912  74.3943   O.3       1 RES1   0.0000
    29 O       97.0344  98.7462  82.4792   O.3       1 RES1   0.0000
    30 O       99.4464  97.6701  83.0696   O.3       1 RES1   0.0000
    31 N      104.4864 101.6489  78.6487   N.pl3     1 RES1   0.0000
    32 H1     100.6476 100.8649  76.5171   H         1 RES1   0.0000
    33 H2     102.5849  98.5271  82.3007   H         1 RES1   0.0000
    34 H3     100.5086  97.1170  81.0009   H         1 RES1   0.0000
    35 H4      99.9601  99.6115  82.4975   H         1 RES1   0.0000
    36 H5      98.0415 100.0533  81.1867   H         1 RES1   0.0000
    37 H6      97.8884  97.0282  80.6539   H         1 RES1   0.0000
    38 H7      96.9169  97.7746  78.4571   H         1 RES1   0.0000
    39 H8      97.1092  99.4892  78.9559   H         1 RES1   0.0000
    40 H9      95.6415 101.4000  79.6796   H         1 RES1   0.0000
    41 H10     95.1674 100.0658  77.3598   H         1 RES1   0.0000
    42 H11     93.4517  95.1445  75.4932   H         1 RES1   0.0000
    43 H12     91.4111  96.0616  74.8178   H         1 RES1   0.0000
    44 H13     96.3145  99.3544  82.3553   H         1 RES1   0.0000
    45 H14     98.7682  97.0368  82.8665   H         1 RES1   0.0000
    46 H15    104.8243 102.2630  77.8935   H         1 RES1   0.0000
    47 H16    105.0763 101.4796  79.4759   H         1 RES1   0.0000
    48 ****   102.7851 101.8549  76.7466   Du        1 RES1   0.0000
    49 ****    99.8702  99.4457  78.2789   Du        1 RES1   0.0000
    50 ****   104.2246 100.0928  81.0863   Du        1 RES1   0.0000
    51 ****    99.3698  99.1634  79.3288   Du        1 RES1   0.0000
    52 ****    99.5027  97.5547  79.0817   Du        1 RES1   0.0000
    53 ****    93.9354  99.3522  81.8319   Du        1 RES1   0.0000
    54 ****    93.7998 100.9775  81.2487   Du        1 RES1   0.0000
    55 ****    94.5456 101.3430  78.5256   Du        1 RES1   0.0000
    56 ****    95.9404 100.5035  78.3978   Du        1 RES1   0.0000
    57 ****    94.7371  96.4231  77.2050   Du        1 RES1   0.0000
    58 ****    95.3543  97.2375  78.6036   Du        1 RES1   0.0000
    59 ****    94.1246 100.0487  76.1563   Du        1 RES1   0.0000
    60 ****    95.4185  99.0525  76.1572   Du        1 RES1   0.0000
    61 ****    93.7941  98.2582  73.4680   Du        1 RES1   0.0000
    62 ****    94.6737  98.7004  74.8931   Du        1 RES1   0.0000
    63 ****    94.3013  95.9743  76.5534   Du        1 RES1   0.0000
    64 ****    94.7784  95.8698  74.9951   Du        1 RES1   0.0000
    65 ****    92.1401  96.5179  73.4778   Du        1 RES1   0.0000
    66 ****    91.2165  97.5636  74.3265   Du        1 RES1   0.0000
    67 ****    97.3947  98.8469  83.4066   Du        1 RES1   0.0000
    68 ****    96.7021  97.8119  82.3503   Du        1 RES1   0.0000
    69 ****    99.2570  98.0777  83.9630   Du        1 RES1   0.0000
    70 ****   100.3313  97.2051  83.0964   Du        1 RES1   0.0000
@<TRIPOS>BOND
     1     1     2   ar
     2     2     3   ar
     3     3     4   ar
     4     4     5   ar
     5     5     6   ar
     6     1     6   ar
     7     5     7   ar
     8     7     8   ar
     9     8     9   ar
    10     4     9   ar
    11     7    10    1
    12    10    11    1
    13    11    12    1
    14    12    13    1
    15    13    14    1
    16    10    14    1
    17    13    15    1
    18    15    16    1
    19    16    17    1
    20    17    18    2
    21    17    19    1
    22    17    20    1
    23    20    21    1
    24    21    22    2
    25    21    23    1
    26    21    24    1
    27    24    25    1
    28    25    26    2
    29    25    27    1
    30    25    28    1
    31    12    29    1
    32    11    30    1
    33     3    31    1
    34     1    32    1
    35     8    33    1
    36    10    34    1
    37    11    35    1
    38    12    36    1
    39    13    37    1
    40    15    38    1
    41    15    39    1
    42    19    40    1
    43    23    41    1
    44    27    42    1
    45    28    43    1
    46    29    44    1
    47    30    45    1
    48    31    46    1
    49    31    47    1
    50     2    48    1
    51     6    49    1
    52     9    50    1
    53    14    51    1
    54    14    52    1
    55    18    53    1
    56    18    54    1
    57    19    55    1
    58    19    56    1
    59    22    57    1
    60    22    58    1
    61    23    59    1
    62    23    60    1
    63    26    61    1
    64    26    62    1
    65    27    63    1
    66    27    64    1
    67    28    65    1
    68    28    66    1
    69    29    67    1
    70    29    68    1
    71    30    69    1
    72    30    70    1
@<TRIPOS>SUBSTRUCTURE
     1 RES1        1 GROUP             0 ****  ****    0  
@<TRIPOS>MOLECULE
37.9259
    70    72     1     0     0
SMALL
NO_CHARGES
****
Generated from the CSD

@<TRIPOS>ATOM
     1 C      100.8385  96.3494  81.7421   C.ar      1 RES1   0.0000
     2 N      100.8917  95.0809  82.2099   N.ar      1 RES1   0.0000
     3 C       99.7950  94.4548  82.6861   C.ar      1 RES1   0.0000
     4 C       98.6012  95.1708  82.6756   C.ar      1 RES1   0.0000
     5 C       98.5770  96.4703  82.1942   C.ar      1 RES1   0.0000
     6 N       99.6903  97.0600  81.7267   N.ar      1 RES1   0.0000
     7 N       97.3087  96.8983  82.3159   N.ar      1 RES1   0.0000
     8 C       96.5533  95.9116  82.8397   C.ar      1 RES1   0.0000
     9 N       97.3539  94.8493  83.0651   N.ar      1 RES1   0.0000
    10 C       96.8449  98.1271  81.9554   C.3       1 RES1   0.0000
    11 C       97.8555  98.9004  81.0766   C.3       1 RES1   0.0000
    12 C       97.0642  99.1811  79.7821   C.3       1 RES1   0.0000
    13 C       95.6136  99.1274  80.2910   C.3       1 RES1   0.0000
    14 O       95.6729  97.9827  81.1438   O.3       1 RES1   0.0000
    15 C       94.5859  98.9199  79.1615   C.3       1 RES1   0.0000
    16 O       93.5080  99.8441  79.3369   O.3       1 RES1   0.0000
    17 P       92.5343  99.7708  80.6037   P.3       1 RES1   0.0000
    18 O       93.3408  99.8491  81.8540   O.2       1 RES1   0.0000
    19 O       91.5102 100.9992  80.5577   O.3       1 RES1   0.0000
    20 O       91.7287  98.3875  80.5744   O.3       1 RES1   0.0000
    21 P       90.9264  98.2161  79.1989   P.3       1 RES1   0.0000
    22 O       91.8910  98.0865  78.0707   O.2       1 RES1   0.0000
    23 O       90.0211  99.5151  78.9691   O.3       1 RES1   0.0000
    24 O       89.9926  96.9169  79.2725   O.3       1 RES1   0.0000
    25 P       90.0897  96.1997  80.7009   P.3       1 RES1   0.0000
    26 O       89.3145  94.9274  80.6846   O.2       1 RES1   0.0000
    27 O       91.6189  95.8869  81.0527   O.3       1 RES1   0.0000
    28 O       89.4793  97.1660  81.8202   O.3       1 RES1   0.0000
    29 O       97.3784 100.4437  79.1833   O.3       1 RES1   0.0000
    30 O       98.1992 100.1224  81.7422   O.3       1 RES1   0.0000
    31 N       99.8489  93.1891  83.1536   N.pl3     1 RES1   0.0000
    32 H1     101.7458  96.8097  81.3680   H         1 RES1   0.0000
    33 H2      95.4898  95.9612  83.0444   H         1 RES1   0.0000
    34 H3      96.5931  98.7331  82.8393   H         1 RES1   0.0000
    35 H4      98.7623  98.3107  80.8698   H         1 RES1   0.0000
    36 H5      97.2268  98.3562  79.0712   H         1 RES1   0.0000
    37 H6      95.3851 100.0310  80.8772   H         1 RES1   0.0000
    38 H7      94.2042  97.8881  79.1808   H         1 RES1   0.0000
    39 H8      95.0744  99.1107  78.1941   H         1 RES1   0.0000
    40 H9      91.9116 101.7609  80.9591   H         1 RES1   0.0000
    41 H10     90.5032 100.1493  78.4515   H         1 RES1   0.0000
    42 H11     92.1334  96.6809  80.9693   H         1 RES1   0.0000
    43 H12     90.0220  97.1329  82.5993   H         1 RES1   0.0000
    44 H13     97.0529 101.1563  79.7216   H         1 RES1   0.0000
    45 H14     98.9338 100.5463  81.3143   H         1 RES1   0.0000
    46 H15    100.7417  92.6748  83.1536   H         1 RES1   0.0000
    47 H16     98.9952  92.7367  83.5105   H         1 RES1   0.0000
    48 ****   101.7657  94.5951  82.2027   Du        1 RES1   0.0000
    49 ****    99.6691  97.9970  81.3779   Du        1 RES1   0.0000
    50 ****    97.0693  93.9734  83.4548   Du        1 RES1   0.0000
    51 ****    95.7350  97.1486  80.5957   Du        1 RES1   0.0000
    52 ****    94.8577  97.9420  81.7216   Du        1 RES1   0.0000
    53 ****    94.3347  99.7457  81.8152   Du        1 RES1   0.0000
    54 ****    92.8882 100.0049  82.7320   Du        1 RES1   0.0000
    55 ****    90.6781 100.7585  81.0575   Du        1 RES1   0.0000
    56 ****    91.2798 101.2058  79.6068   Du        1 RES1   0.0000
    57 ****    91.9989  97.2090  77.6035   Du        1 RES1   0.0000
    58 ****    92.4304  98.8770  77.7807   Du        1 RES1   0.0000
    59 ****    89.7846  99.9174  79.8536   Du        1 RES1   0.0000
    60 ****    89.1845  99.2572  78.4859   Du        1 RES1   0.0000
    61 ****    88.5128  94.8228  81.2731   Du        1 RES1   0.0000
    62 ****    89.5960  94.1781  80.0852   Du        1 RES1   0.0000
    63 ****    91.9706  95.1946  80.4227   Du        1 RES1   0.0000
    64 ****    91.6818  95.5465  81.9909   Du        1 RES1   0.0000
    65 ****    88.5521  96.8682  82.0475   Du        1 RES1   0.0000
    66 ****    89.4525  98.1032  81.4725   Du        1 RES1   0.0000
    67 ****    96.9545 100.4939  78.2790   Du        1 RES1   0.0000
    68 ****    98.3706 100.5269  79.0914   Du        1 RES1   0.0000
    69 ****    98.4444  99.9210  82.6905   Du        1 RES1   0.0000
    70 ****    97.4109 100.7375  81.7251   Du        1 RES1   0.0000
@<TRIPOS>BOND
     1     1     2   ar
     2     2     3   ar
     3     3     4   ar
     4     4     5   ar
     5     5     6   ar
     6     1     6   ar
     7     5     7   ar
     8     7     8   ar
     9     8     9   ar
    10     4     9   ar
    11     7    10    1
    12    10    11    1
    13    11    12    1
    14    12    13    1
    15    13    14    1
    16    10    14    1
    17    13    15    1
    18    15    16    1
    19    16    17    1
    20    17    18    2
    21    17    19    1
    22    17    20    1
    23    20    21    1
    24    21    22    2
    25    21    23    1
    26    21    24    1
    27    24    25    1
    28    25    26    2
    29    25    27    1
    30    25    28    1
    31    12    29    1
    32    11    30    1
    33     3    31    1
    34     1    32    1
    35     8    33    1
    36    10    34    1
    37    11    35    1
    38    12    36    1
    39    13    37    1
    40    15    38    1
    41    15    39    1
    42    19    40    1
    43    23    41    1
    44    27    42    1
    45    28    43    1
    46    29    44    1
    47    30    45    1
    48    31    46    1
    49    31    47    1
    50     2    48    1
    51     6    49    1
    52     9    50    1
    53    14    51    1
    54    14    52    1
    55    18    53    1
    56    18    54    1
    57    19    55    1
    58    19    56    1
    59    22    57    1
    60    22    58    1
    61    23    59    1
    62    23    60    1
    63    26    61    1
    64    26    62    1
    65    27    63    1
    66    27    64    1
    67    28    65    1
    68    28    66    1
    69    29    67    1
    70    29    68    1
    71    30    69    1
    72    30    70    1
@<TRIPOS>SUBSTRUCTURE
     1 RES1        1 GROUP             0 ****  ****    0  
@<TRIPOS>MOLECULE
36.3941
    70    72     1     0     0
SMALL
NO_CHARGES
****
Generated from the CSD

@<TRIPOS>ATOM
     1 C      103.4509 101.1967  81.8671   C.ar      1 RES1   0.0000
     2 N      104.0656 101.9255  80.9071   N.ar      1 RES1   0.0000
     3 C      103.6503 101.9001  79.6233   C.ar      1 RES1   0.0000
     4 C      102.5580 101.0899  79.3260   C.ar      1 RES1   0.0000
     5 C      101.9503 100.3509  80.3289   C.ar      1 RES1   0.0000
     6 N      102.3921 100.4033  81.5969   N.ar      1 RES1   0.0000
     7 N      100.9464  99.6723  79.7474   N.ar      1 RES1   0.0000
     8 C      100.9061  99.9742  78.4336   C.ar      1 RES1   0.0000
     9 N      101.9041 100.8446  78.1757   N.ar      1 RES1   0.0000
    10 C      100.0886  98.8233  80.3785   C.3       1 RES1   0.0000
    11 C       99.7489  99.2921  81.8125   C.3       1 RES1   0.0000
    12 C       98.2131  99.4376  81.7881   C.3       1 RES1   0.0000
    13 C       97.8315  98.4774  80.6486   C.3       1 RES1   0.0000
    14 O       98.8357  98.7969  79.6838   O.3       1 RES1   0.0000
    15 C       96.4220  98.7415  80.0844   C.3       1 RES1   0.0000
    16 O       96.2137  97.9065  78.9414   O.3       1 RES1   0.0000
    17 P       94.7562  97.6694  78.3269   P.3       1 RES1   0.0000
    18 O       93.8452  97.1643  79.3922   O.2       1 RES1   0.0000
    19 O       94.1885  99.0530  77.7583   O.3       1 RES1   0.0000
    20 O       94.8468  96.5909  77.1471   O.3       1 RES1   0.0000
    21 P       93.3978  96.2731  76.5434   P.3       1 RES1   0.0000
    22 O       92.3864  97.1664  77.1754   O.2       1 RES1   0.0000
    23 O       93.0301  94.7505  76.8692   O.3       1 RES1   0.0000
    24 O       93.4090  96.4954  74.9572   O.3       1 RES1   0.0000
    25 P       91.9981  96.1217  74.2984   P.3       1 RES1   0.0000
    26 O       91.6061  94.7378  74.6873   O.2       1 RES1   0.0000
    27 O       90.8757  97.1508  74.7896   O.3       1 RES1   0.0000
    28 O       92.1215  96.1986  72.7053   O.3       1 RES1   0.0000
    29 O       97.5861  99.0809  83.0255   O.3       1 RES1   0.0000
    30 O      100.1524  98.2720  82.7349   O.3       1 RES1   0.0000
    31 N      104.2646 102.6271  78.6654   N.pl3     1 RES1   0.0000
    32 H1     103.8198 101.2512  82.8849   H         1 RES1   0.0000
    33 H2     100.1974  99.5867  77.7104   H         1 RES1   0.0000
    34 H3     100.4957  97.8011  80.4167   H         1 RES1   0.0000
    35 H4     100.2361 100.2474  82.0633   H         1 RES1   0.0000
    36 H5      97.9505 100.4660  81.4951   H         1 RES1   0.0000
    37 H6      97.9386  97.4335  80.9822   H         1 RES1   0.0000
    38 H7      96.3187  99.7997  79.8015   H         1 RES1   0.0000
    39 H8      95.6763  98.4949  80.8551   H         1 RES1   0.0000
    40 H9      94.5052  99.7695  78.2956   H         1 RES1   0.0000
    41 H10     92.7325  94.6823  77.7688   H         1 RES1   0.0000
    42 H11     90.1330  96.6703  75.1353   H         1 RES1   0.0000
    43 H12     91.5820  96.9089  72.3784   H         1 RES1   0.0000
    44 H13     97.0670  98.2918  82.9190   H         1 RES1   0.0000
    45 H14    100.6222  97.5777  82.2880   H         1 RES1   0.0000
    46 H15    105.0719 103.2211  78.9042   H         1 RES1   0.0000
    47 H16    103.9249 102.5880  77.6938   H         1 RES1   0.0000
    48 ****   104.8475 102.4975  81.1551   Du        1 RES1   0.0000
    49 ****   101.9501  99.8707  82.3187   Du        1 RES1   0.0000
    50 ****   102.1208 101.2397  77.2830   Du        1 RES1   0.0000
    51 ****    98.6493  99.6912  79.2771   Du        1 RES1   0.0000
    52 ****    98.8556  98.1016  78.9654   Du        1 RES1   0.0000
    53 ****    93.0483  96.6117  79.1480   Du        1 RES1   0.0000
    54 ****    94.0306  97.3779  80.3513   Du        1 RES1   0.0000
    55 ****    93.1889  99.0370  77.7793   Du        1 RES1   0.0000
    56 ****    94.5002  99.1794  76.8165   Du        1 RES1   0.0000
    57 ****    92.6812  97.9824  77.6726   Du        1 RES1   0.0000
    58 ****    91.4129  96.9500  77.1023   Du        1 RES1   0.0000
    59 ****    93.8395  94.1774  76.7414   Du        1 RES1   0.0000
    60 ****    92.3040  94.4439  76.2537   Du        1 RES1   0.0000
    61 ****    92.2561  93.9854  74.5806   Du        1 RES1   0.0000
    62 ****    90.6931  94.5615  75.0552   Du        1 RES1   0.0000
    63 ****    90.5785  97.7128  74.0177   Du        1 RES1   0.0000
    64 ****    91.2534  97.7392  75.5045   Du        1 RES1   0.0000
    65 ****    91.8136  95.3353  72.3054   Du        1 RES1   0.0000
    66 ****    93.0753  96.3615  72.4527   Du        1 RES1   0.0000
    67 ****    96.9916  99.8287  83.3211   Du        1 RES1   0.0000
    68 ****    98.2901  98.9212  83.7175   Du        1 RES1   0.0000
    69 ****    99.3403  97.8878  83.1741   Du        1 RES1   0.0000
    70 ****   100.7476  98.6756  83.4297   Du        1 RES1   0.0000
@<TRIPOS>BOND
     1     1     2   ar
     2     2     3   ar
     3     3     4   ar
     4     4     5   ar
     5     5     6   ar
     6     1     6   ar
     7     5     7   ar
     8     7     8   ar
     9     8     9   ar
    10     4     9   ar
    11     7    10    1
    12    10    11    1
    13    11    12    1
    14    12    13    1
    15    13    14    1
    16    10    14    1
    17    13    15    1
    18    15    16    1
    19    16    17    1
    20    17    18    2
    21    17    19    1
    22    17    20    1
    23    20    21    1
    24    21    22    2
    25    21    23    1
    26    21    24    1
    27    24    25    1
    28    25    26    2
    29    25    27    1
    30    25    28    1
    31    12    29    1
    32    11    30    1
    33     3    31    1
    34     1    32    1
    35     8    33    1
    36    10    34    1
    37    11    35    1
    38    12    36    1
    39    13    37    1
    40    15    38    1
    41    15    39    1
    42    19    40    1
    43    23    41    1
    44    27    42    1
    45    28    43    1
    46    29    44    1
    47    30    45    1
    48    31    46    1
    49    31    47    1
    50     2    48    1
    51     6    49    1
    52     9    50    1
    53    14    51    1
    54    14    52    1
    55    18    53    1
    56    18    54    1
    57    19    55    1
    58    19    56    1
    59    22    57    1
    60    22    58    1
    61    23    59    1
    62    23    60    1
    63    26    61    1
    64    26    62    1
    65    27    63    1
    66    27    64    1
    67    28    65    1
    68    28    66    1
    69    29    67    1
    70    29    68    1
    71    30    69    1
    72    30    70    1
@<TRIPOS>SUBSTRUCTURE
     1 RES1        1 GROUP             0 ****  ****    0  
@<TRIPOS>MOLECULE
33.0335
    70    72     1     0     0
SMALL
NO_CHARGES
****
Generated from the CSD

@<TRIPOS>ATOM
     1 C      101.1837  99.5004  82.4828   C.ar      1 RES1   0.0000
     2 N      102.0541 100.2066  81.7248   N.ar      1 RES1   0.0000
     3 C      101.8151 100.4589  80.4208   C.ar      1 RES1   0.0000
     4 C      100.6306  99.9611  79.8852   C.ar      1 RES1   0.0000
     5 C       99.7592  99.2376  80.6841   C.ar      1 RES1   0.0000
     6 N      100.0314  99.0076  81.9798   N.ar      1 RES1   0.0000
     7 N       98.7245  98.8883  79.9007   N.ar      1 RES1   0.0000
     8 C       98.9196  99.3781  78.6594   C.ar      1 RES1   0.0000
     9 N      100.0981 100.0348  78.6515   N.ar      1 RES1   0.0000
    10 C       97.6373  98.1673  80.2919   C.3       1 RES1   0.0000
    11 C       96.8860  98.8318  81.4691   C.3       1 RES1   0.0000
    12 C       95.4623  99.0424  80.9130   C.3       1 RES1   0.0000
    13 C       95.3962  97.9618  79.8203   C.3       1 RES1   0.0000
    14 O       96.6855  98.1086  79.2225   O.3       1 RES1   0.0000
    15 C       94.2792  98.2147  78.7892   C.3       1 RES1   0.0000
    16 O       94.0279  97.0046  78.0683   O.3       1 RES1   0.0000
    17 P       93.3024  97.0096  76.6429   P.3       1 RES1   0.0000
    18 O       93.4930  98.3372  75.9941   O.2       1 RES1   0.0000
    19 O       93.9429  95.8723  75.7175   O.3       1 RES1   0.0000
    20 O       91.7381  96.7334  76.8428   O.3       1 RES1   0.0000
    21 P       91.4909  95.3690  77.6443   P.3       1 RES1   0.0000
    22 O       92.8006  94.7455  77.9850   O.2       1 RES1   0.0000
    23 O       90.6607  94.3699  76.7104   O.3       1 RES1   0.0000
    24 O       90.6622  95.6670  78.9822   O.3       1 RES1   0.0000
    25 P       91.4727  95.2237  80.2902   P.3       1 RES1   0.0000
    26 O       92.6991  96.0574  80.4350   O.2       1 RES1   0.0000
    27 O       90.5538  95.3986  81.5883   O.3       1 RES1   0.0000
    28 O       91.9012  93.6886  80.1517   O.3       1 RES1   0.0000
    29 O       94.4347  98.8768  81.8969   O.3       1 RES1   0.0000
    30 O       96.8742  97.9217  82.5762   O.3       1 RES1   0.0000
    31 N      102.6845 101.1630  79.6646   N.pl3     1 RES1   0.0000
    32 H1     101.4185  99.3248  83.5264   H         1 RES1   0.0000
    33 H2      98.2489  99.2649  77.8152   H         1 RES1   0.0000
    34 H3      97.9198  97.1412  80.5734   H         1 RES1   0.0000
    35 H4      97.3435  99.7883  81.7665   H         1 RES1   0.0000
    36 H5      95.4001 100.0354  80.4412   H         1 RES1   0.0000
    37 H6      95.2975  96.9658  80.2792   H         1 RES1   0.0000
    38 H7      94.5788  99.0124  78.0931   H         1 RES1   0.0000
    39 H8      93.3643  98.5179  79.3202   H         1 RES1   0.0000
    40 H9      93.5939  95.9472  74.8372   H         1 RES1   0.0000
    41 H10     89.9447  94.8410  76.3008   H         1 RES1   0.0000
    42 H11     91.0426  95.8507  82.2655   H         1 RES1   0.0000
    43 H12     92.3250  93.5511  79.3127   H         1 RES1   0.0000
    44 H13     94.7079  98.2533  82.5602   H         1 RES1   0.0000
    45 H14     96.1312  98.0886  83.1441   H         1 RES1   0.0000
    46 H15    103.5566 101.5235  80.0784   H         1 RES1   0.0000
    47 H16    102.4751 101.3405  78.6718   H         1 RES1   0.0000
    48 ****   102.8958 100.5501  82.1414   Du        1 RES1   0.0000
    49 ****    99.3997  98.4872  82.5543   Du        1 RES1   0.0000
    50 ****   100.5059 100.4970  77.8640   Du        1 RES1   0.0000
    51 ****    96.7209  98.9507  78.6842   Du        1 RES1   0.0000
    52 ****    96.8811  97.3264  78.6309   Du        1 RES1   0.0000
    53 ****    94.4037  98.6207  75.6935   Du        1 RES1   0.0000
    54 ****    92.7104  98.9449  75.8594   Du        1 RES1   0.0000
    55 ****    93.7167  94.9725  76.0904   Du        1 RES1   0.0000
    56 ****    94.9364  95.9828  75.6929   Du        1 RES1   0.0000
    57 ****    93.5810  94.8535  77.3692   Du        1 RES1   0.0000
    58 ****    92.8991  94.2189  78.8294   Du        1 RES1   0.0000
    59 ****    90.2942  93.6225  77.2646   Du        1 RES1   0.0000
    60 ****    91.2620  93.9970  76.0037   Du        1 RES1   0.0000
    61 ****    93.5988  95.6221  80.4659   Du        1 RES1   0.0000
    62 ****    92.6224  97.0522  80.5013   Du        1 RES1   0.0000
    63 ****    90.2757  94.4983  81.9231   Du        1 RES1   0.0000
    64 ****    89.7415  95.9317  81.3518   Du        1 RES1   0.0000
    65 ****    91.0885  93.1092  80.2132   Du        1 RES1   0.0000
    66 ****    92.5355  93.4523  80.8878   Du        1 RES1   0.0000
    67 ****    93.6039  98.5419  81.4523   Du        1 RES1   0.0000
    68 ****    94.2486  99.7585  82.3304   Du        1 RES1   0.0000
    69 ****    97.7185  98.0327  83.1004   Du        1 RES1   0.0000
    70 ****    96.8177  96.9853  82.2298   Du        1 RES1   0.0000
@<TRIPOS>BOND
     1     1     2   ar
     2     2     3   ar
     3     3     4   ar
     4     4     5   ar
     5     5     6   ar
     6     1     6   ar
     7     5     7   ar
     8     7     8   ar
     9     8     9   ar
    10     4     9   ar
    11     7    10    1
    12    10    11    1
    13    11    12    1
    14    12    13    1
    15    13    14    1
    16    10    14    1
    17    13    15    1
    18    15    16    1
    19    16    17    1
    20    17    18    2
    21    17    19    1
    22    17    20    1
    23    20    21    1
    24    21    22    2
    25    21    23    1
    26    21    24    1
    27    24    25    1
    28    25    26    2
    29    25    27    1
    30    25    28    1
    31    12    29    1
    32    11    30    1
    33     3    31    1
    34     1    32    1
    35     8    33    1
    36    10    34    1
    37    11    35    1
    38    12    36    1
    39    13    37    1
    40    15    38    1
    41    15    39    1
    42    19    40    1
    43    23    41    1
    44    27    42    1
    45    28    43    1
    46    29    44    1
    47    30    45    1
    48    31    46    1
    49    31    47    1
    50     2    48    1
    51     6    49    1
    52     9    50    1
    53    14    51    1
    54    14    52    1
    55    18    53    1
    56    18    54    1
    57    19    55    1
    58    19    56    1
    59    22    57    1
    60    22    58    1
    61    23    59    1
    62    23    60    1
    63    26    61    1
    64    26    62    1
    65    27    63    1
    66    27    64    1
    67    28    65    1
    68    28    66    1
    69    29    67    1
    70    29    68    1
    71    30    69    1
    72    30    70    1
@<TRIPOS>SUBSTRUCTURE
     1 RES1        1 GROUP             0 ****  ****    0  
