ATP_A_381
          05071912473D 1   1.00000     0.00000     0
            
 47 49  0  0  0  0            999 V2000
   -4.0165   24.2588   15.1020 P   0  0  0  0  0  0  0  0  0  0  0  0
   -1.6308   23.4083   13.7563 P   0  0  0  0  0  0  0  0  0  0  0  0
   -2.8594   24.3731   11.3302 P   0  0  0  0  0  0  0  0  0  0  0  0
   -4.5773   24.0596   16.4312 O   0  0  0  0  0  0  0  0  0  0  0  0
   -3.6153   25.6542   14.7844 O   0  0  0  0  0  0  0  0  0  0  0  0
   -5.1187   23.8694   14.1352 O   0  0  0  0  0  0  0  0  0  0  0  0
   -1.1081   24.7906   13.7207 O   0  0  0  0  0  0  0  0  0  0  0  0
   -0.6589   22.3279   13.8570 O   0  0  0  0  0  0  0  0  0  0  0  0
   -3.9578   23.7008   10.5384 O   0  0  0  0  0  0  0  0  0  0  0  0
   -3.1306   25.6945   11.8329 O   0  0  0  0  0  0  0  0  0  0  0  0
    2.4865   25.6923   10.6252 O   0  0  0  0  0  0  0  0  0  0  0  0
    2.2644   23.2576   10.1626 O   0  0  0  0  0  0  0  0  0  0  0  0
   -2.8220   23.2711   14.8053 O   0  0  0  0  0  0  0  0  0  0  0  0
   -2.5653   23.2307   12.4611 O   0  0  0  0  0  0  0  0  0  0  0  0
   -1.5643   24.4002   10.4059 O   0  0  0  0  0  0  0  0  0  0  0  0
    0.2671   24.6056    8.1781 O   0  0  0  0  0  0  0  0  0  0  0  0
   -0.1741   31.4102    7.5028 N   0  0  0  0  0  0  0  0  0  0  0  0
    1.4895   30.2828    6.4455 N   0  0  0  0  0  0  0  0  0  0  0  0
    2.0071   27.9510    6.6939 N   0  0  0  0  0  0  0  0  0  0  0  0
   -0.7117   28.6600    8.7764 N   0  0  0  0  0  0  0  0  0  0  0  0
    0.4828   26.8753    8.2806 N   0  0  0  0  0  0  0  0  0  0  0  0
   -1.3457   23.3309    9.4653 C   0  0  0  0  0  0  0  0  0  0  0  0
    2.1594   29.1378    6.1633 C   0  0  0  0  0  0  0  0  0  0  0  0
   -0.5368   27.4238    8.9802 C   0  0  0  0  0  0  0  0  0  0  0  0
    1.1258   25.4173   10.2032 C   0  0  2  0  0  0  0  0  0  0  0  0
    0.9666   23.8615   10.3207 C   0  0  1  0  0  0  0  0  0  0  0  0
    1.0977   25.6104    8.6716 C   0  0  1  0  0  0  0  0  0  0  0  0
    0.4573   30.2643    7.3180 C   0  0  0  0  0  0  0  0  0  0  0  0
    0.1308   23.5058    9.0861 C   0  0  2  0  0  0  0  0  0  0  0  0
    0.9782   27.9375    7.5505 C   0  0  0  0  0  0  0  0  0  0  0  0
    0.2109   29.0217    7.9091 C   0  0  0  0  0  0  0  0  0  0  0  0
   -4.8155   23.0959   16.5515 H   0  0  0  0  0  0  0  0  0  0  0  0
   -3.2441   25.6914   13.8566 H   0  0  0  0  0  0  0  0  0  0  0  0
   -1.8708   25.4336   13.6511 H   0  0  0  0  0  0  0  0  0  0  0  0
   -3.6513   22.7949   10.2461 H   0  0  0  0  0  0  0  0  0  0  0  0
    2.6588   26.6761   10.5747 H   0  0  0  0  0  0  0  0  0  0  0  0
    2.1806   22.2638   10.2350 H   0  0  0  0  0  0  0  0  0  0  0  0
   -0.9462   31.4592    8.1365 H   0  0  0  0  0  0  0  0  0  0  0  0
    0.1201   32.2285    7.0090 H   0  0  0  0  0  0  0  0  0  0  0  0
   -1.9370   23.4292    8.6649 H   0  0  0  0  0  0  0  0  0  0  0  0
   -1.5051   22.4398    9.8901 H   0  0  0  0  0  0  0  0  0  0  0  0
    2.8629   29.2098    5.4562 H   0  0  0  0  0  0  0  0  0  0  0  0
   -1.1068   26.8942    9.6085 H   0  0  0  0  0  0  0  0  0  0  0  0
    0.4296   25.9396   10.6957 H   0  0  0  0  0  0  0  0  0  0  0  0
    0.5211   23.5881   11.1732 H   0  0  0  0  0  0  0  0  0  0  0  0
    2.0175   25.5300    8.2875 H   0  0  0  0  0  0  0  0  0  0  0  0
    0.4789   22.6680    8.6655 H   0  0  0  0  0  0  0  0  0  0  0  0
  1  4  1  0  0  0  0
  1  5  1  0  0  0  0
  1  6  2  0  0  0  0
  1 13  1  0  0  0  0
  2  7  1  0  0  0  0
  2  8  2  0  0  0  0
  2 13  1  0  0  0  0
  2 14  1  0  0  0  0
  3  9  1  0  0  0  0
  3 10  2  0  0  0  0
  3 14  1  0  0  0  0
  3 15  1  0  0  0  0
 11 25  1  0  0  0  0
 12 26  1  0  0  0  0
 15 22  1  0  0  0  0
 16 27  1  0  0  0  0
 16 29  1  0  0  0  0
 17 28  1  0  0  0  0
 18 23  1  0  0  0  0
 18 28  2  0  0  0  0
 19 23  2  0  0  0  0
 19 30  1  0  0  0  0
 20 24  2  0  0  0  0
 20 31  1  0  0  0  0
 21 24  1  0  0  0  0
 21 27  1  0  0  0  0
 21 30  1  0  0  0  0
 22 29  1  0  0  0  0
 25 26  1  0  0  0  0
 25 27  1  0  0  0  0
 26 29  1  0  0  0  0
 28 31  1  0  0  0  0
 30 31  2  0  0  0  0
  4 32  1  0  0  0  0
  5 33  1  0  0  0  0
  7 34  1  0  0  0  0
  9 35  1  0  0  0  0
 11 36  1  0  0  0  0
 12 37  1  0  0  0  0
 17 38  1  0  0  0  0
 17 39  1  0  0  0  0
 22 40  1  0  0  0  0
 22 41  1  0  0  0  0
 23 42  1  0  0  0  0
 24 43  1  0  0  0  0
 25 44  1  0  0  0  0
 26 45  1  0  0  0  0
 27 46  1  0  0  0  0
 29 47  1  0  0  0  0
M  END
$$$$
