PVB_A_299
          05071912473D 1   1.00000     0.00000     0
            
 28 30  0  0  0  0            999 V2000
    6.0632   23.9876    8.6945 Cl  0  0  0  0  0  0  0  0  0  0  0  0
    1.9533   26.9446    7.7976 N   0  0  0  0  0  0  0  0  0  0  0  0
   -0.1563   27.9151    8.4559 N   0  0  0  0  0  0  0  0  0  0  0  0
    1.6365   30.4650    6.6113 N   0  0  0  0  0  0  0  0  0  0  0  0
    3.6895   28.0775    6.5358 N   0  0  0  0  0  0  0  0  0  0  0  0
   -0.3650   30.2769    7.6882 N   0  0  0  0  0  0  0  0  0  0  0  0
   -1.7038   30.7024    8.2349 C   0  0  0  0  0  0  0  0  0  0  0  0
    0.7097   26.9144    8.4120 C   0  0  0  0  0  0  0  0  0  0  0  0
    0.5123   31.0918    6.9480 C   0  0  0  0  0  0  0  0  0  0  0  0
    5.3477   25.1257    4.9247 C   0  0  0  0  0  0  0  0  0  0  0  0
    5.7832   24.3964    6.0342 C   0  0  0  0  0  0  0  0  0  0  0  0
    4.6603   26.3274    5.1003 C   0  0  0  0  0  0  0  0  0  0  0  0
    4.8392   26.0835    7.4976 C   0  0  0  0  0  0  0  0  0  0  0  0
    2.4244   28.0715    7.1386 C   0  0  0  0  0  0  0  0  0  0  0  0
    0.2915   29.0334    7.8096 C   0  0  0  0  0  0  0  0  0  0  0  0
    5.5285   24.8758    7.3241 C   0  0  0  0  0  0  0  0  0  0  0  0
    4.4008   26.8148    6.3821 C   0  0  0  0  0  0  0  0  0  0  0  0
    1.5188   29.2173    7.1385 C   0  0  0  0  0  0  0  0  0  0  0  0
    4.0970   28.9332    6.2167 H   0  0  0  0  0  0  0  0  0  0  0  0
   -2.1242   29.9361    8.7208 H   0  0  0  0  0  0  0  0  0  0  0  0
   -1.5783   31.4683    8.8654 H   0  0  0  0  0  0  0  0  0  0  0  0
   -2.2971   30.9849    7.4811 H   0  0  0  0  0  0  0  0  0  0  0  0
    0.4439   26.0615    8.8614 H   0  0  0  0  0  0  0  0  0  0  0  0
    0.3121   32.0401    6.7018 H   0  0  0  0  0  0  0  0  0  0  0  0
    5.5291   24.7855    4.0021 H   0  0  0  0  0  0  0  0  0  0  0  0
    6.2751   23.5351    5.9069 H   0  0  0  0  0  0  0  0  0  0  0  0
    4.3512   26.8433    4.3014 H   0  0  0  0  0  0  0  0  0  0  0  0
    4.6589   26.4259    8.4197 H   0  0  0  0  0  0  0  0  0  0  0  0
  1 16  1  0  0  0  0
  2  8  2  0  0  0  0
  2 14  1  0  0  0  0
  3  8  1  0  0  0  0
  3 15  2  0  0  0  0
  4  9  2  0  0  0  0
  4 18  1  0  0  0  0
  5 14  1  0  0  0  0
  5 17  1  0  0  0  0
  6  7  1  0  0  0  0
  6  9  1  0  0  0  0
  6 15  1  0  0  0  0
 10 11  2  0  0  0  0
 10 12  1  0  0  0  0
 11 16  1  0  0  0  0
 12 17  2  0  0  0  0
 13 16  2  0  0  0  0
 13 17  1  0  0  0  0
 14 18  2  0  0  0  0
 15 18  1  0  0  0  0
  5 19  1  0  0  0  0
  7 20  1  0  0  0  0
  7 21  1  0  0  0  0
  7 22  1  0  0  0  0
  8 23  1  0  0  0  0
  9 24  1  0  0  0  0
 10 25  1  0  0  0  0
 11 26  1  0  0  0  0
 12 27  1  0  0  0  0
 13 28  1  0  0  0  0
M  END
$$$$
