DTQ_A_500
          05071912473D 1   1.00000     0.00000     0
            
 37 39  0  0  0  0            999 V2000
   -4.2249   27.5189   12.1329 O   0  0  0  0  0  0  0  0  0  0  0  0
    5.0075   26.2704    5.9476 O   0  0  0  0  0  0  0  0  0  0  0  0
    3.5883   25.1015    8.0454 O   0  0  0  0  0  0  0  0  0  0  0  0
    0.2401   30.5804    7.7084 N   0  0  0  0  0  0  0  0  0  0  0  0
    2.1691   30.4668    6.2443 N   0  0  0  0  0  0  0  0  0  0  0  0
   -0.5284   28.7012    9.1220 N   0  0  0  0  0  0  0  0  0  0  0  0
    6.0453   26.7981    5.1129 C   0  0  0  0  0  0  0  0  0  0  0  0
    2.8609   24.3749    9.0416 C   0  0  0  0  0  0  0  0  0  0  0  0
    1.0804   31.1567    6.7691 C   0  0  0  0  0  0  0  0  0  0  0  0
   -3.5890   30.8122   10.3539 C   0  0  0  0  0  0  0  0  0  0  0  0
   -4.1956   29.8039   11.2427 C   0  0  0  0  0  0  0  0  0  0  0  0
   -2.3723   30.4807    9.5918 C   0  0  0  0  0  0  0  0  0  0  0  0
   -2.3375   28.1543   10.6496 C   0  0  0  0  0  0  0  0  0  0  0  0
    3.6477   28.4289    6.1044 C   0  0  0  0  0  0  0  0  0  0  0  0
    2.0196   27.1380    8.2419 C   0  0  0  0  0  0  0  0  0  0  0  0
   -3.5950   28.4698   11.3605 C   0  0  0  0  0  0  0  0  0  0  0  0
    0.4156   29.2369    8.2097 C   0  0  0  0  0  0  0  0  0  0  0  0
    3.9862   27.0567    6.5386 C   0  0  0  0  0  0  0  0  0  0  0  0
    3.1921   26.4148    7.6483 C   0  0  0  0  0  0  0  0  0  0  0  0
   -1.7046   29.1449    9.7482 C   0  0  0  0  0  0  0  0  0  0  0  0
    2.4982   29.1427    6.6738 C   0  0  0  0  0  0  0  0  0  0  0  0
    1.6147   28.4655    7.7511 C   0  0  0  0  0  0  0  0  0  0  0  0
   -3.8284   26.6053   12.2232 H   0  0  0  0  0  0  0  0  0  0  0  0
   -0.2967   27.7656    9.3885 H   0  0  0  0  0  0  0  0  0  0  0  0
    6.6446   26.0546    4.8159 H   0  0  0  0  0  0  0  0  0  0  0  0
    5.6380   27.2379    4.3125 H   0  0  0  0  0  0  0  0  0  0  0  0
    6.5778   27.4700    5.6276 H   0  0  0  0  0  0  0  0  0  0  0  0
    3.2887   23.4819    9.1817 H   0  0  0  0  0  0  0  0  0  0  0  0
    2.8696   24.8870    9.9005 H   0  0  0  0  0  0  0  0  0  0  0  0
    1.9164   24.2481    8.7386 H   0  0  0  0  0  0  0  0  0  0  0  0
    0.9001   32.0909    6.4610 H   0  0  0  0  0  0  0  0  0  0  0  0
   -4.0023   31.7188   10.2687 H   0  0  0  0  0  0  0  0  0  0  0  0
   -5.0174   30.0294   11.7660 H   0  0  0  0  0  0  0  0  0  0  0  0
   -1.9860   31.1544    8.9619 H   0  0  0  0  0  0  0  0  0  0  0  0
   -1.9085   27.2603   10.7790 H   0  0  0  0  0  0  0  0  0  0  0  0
    4.2113   28.8783    5.4113 H   0  0  0  0  0  0  0  0  0  0  0  0
    1.5037   26.7106    8.9844 H   0  0  0  0  0  0  0  0  0  0  0  0
  1 16  1  0  0  0  0
  2  7  1  0  0  0  0
  2 18  1  0  0  0  0
  3  8  1  0  0  0  0
  3 19  1  0  0  0  0
  4  9  1  0  0  0  0
  4 17  2  0  0  0  0
  5  9  2  0  0  0  0
  5 21  1  0  0  0  0
  6 17  1  0  0  0  0
  6 20  1  0  0  0  0
 10 11  1  0  0  0  0
 10 12  2  0  0  0  0
 11 16  2  0  0  0  0
 12 20  1  0  0  0  0
 13 16  1  0  0  0  0
 13 20  2  0  0  0  0
 14 18  1  0  0  0  0
 14 21  2  0  0  0  0
 15 19  1  0  0  0  0
 15 22  2  0  0  0  0
 17 22  1  0  0  0  0
 18 19  2  0  0  0  0
 21 22  1  0  0  0  0
  1 23  1  0  0  0  0
  6 24  1  0  0  0  0
  7 25  1  0  0  0  0
  7 26  1  0  0  0  0
  7 27  1  0  0  0  0
  8 28  1  0  0  0  0
  8 29  1  0  0  0  0
  8 30  1  0  0  0  0
  9 31  1  0  0  0  0
 10 32  1  0  0  0  0
 11 33  1  0  0  0  0
 12 34  1  0  0  0  0
 13 35  1  0  0  0  0
 14 36  1  0  0  0  0
 15 37  1  0  0  0  0
M  END
$$$$
