HMD_A_400
          05071912473D 1   1.00000     0.00000     0
            
 29 31  0  0  0  0            999 V2000
    3.7300   26.3129    7.7204 Br  0  0  0  0  0  0  0  0  0  0  0  0
    1.7524   30.8013    5.5710 O   0  0  0  0  0  0  0  0  0  0  0  0
   -3.7436   29.4087   10.2168 O   0  0  0  0  0  0  0  0  0  0  0  0
   -1.8287   25.6854   12.0892 N   0  0  0  0  0  0  0  0  0  0  0  0
    0.1542   31.5397    7.0355 N   0  0  0  0  0  0  0  0  0  0  0  0
    2.3397   28.6154    7.0542 N   0  0  0  0  0  0  0  0  0  0  0  0
   -3.1088   27.5376   11.3943 N   0  0  0  0  0  0  0  0  0  0  0  0
   -1.1728   27.0838   10.3513 N   0  0  0  0  0  0  0  0  0  0  0  0
   -0.7508   31.4483    8.1940 C   0  0  0  0  0  0  0  0  0  0  0  0
   -1.6630   30.2357    8.1531 C   0  0  0  0  0  0  0  0  0  0  0  0
    1.1061   27.3550    8.4141 C   0  0  0  0  0  0  0  0  0  0  0  0
    2.2903   27.4764    7.7483 C   0  0  0  0  0  0  0  0  0  0  0  0
   -2.0417   26.7338   11.3174 C   0  0  0  0  0  0  0  0  0  0  0  0
    1.0465   30.5930    6.5666 C   0  0  0  0  0  0  0  0  0  0  0  0
   -2.9431   28.4883   10.4439 C   0  0  0  0  0  0  0  0  0  0  0  0
    1.1878   29.2952    7.2411 C   0  0  0  0  0  0  0  0  0  0  0  0
   -1.6302   28.2497    9.7191 C   0  0  0  0  0  0  0  0  0  0  0  0
   -1.0026   28.9728    8.6989 C   0  0  0  0  0  0  0  0  0  0  0  0
    0.3600   28.5271    8.1168 C   0  0  0  0  0  0  0  0  0  0  0  0
   -1.0034   25.1341   11.9672 H   0  0  0  0  0  0  0  0  0  0  0  0
   -2.4926   25.4419   12.7963 H   0  0  0  0  0  0  0  0  0  0  0  0
    0.1188   32.3969    6.5218 H   0  0  0  0  0  0  0  0  0  0  0  0
    3.1062   28.9168    6.4870 H   0  0  0  0  0  0  0  0  0  0  0  0
   -0.3338   26.5909   10.1206 H   0  0  0  0  0  0  0  0  0  0  0  0
   -1.3185   32.2712    8.2183 H   0  0  0  0  0  0  0  0  0  0  0  0
   -0.1973   31.4006    9.0255 H   0  0  0  0  0  0  0  0  0  0  0  0
   -1.9307   30.0703    7.2039 H   0  0  0  0  0  0  0  0  0  0  0  0
   -2.4772   30.4310    8.6998 H   0  0  0  0  0  0  0  0  0  0  0  0
    0.8201   26.5933    8.9954 H   0  0  0  0  0  0  0  0  0  0  0  0
  1 12  1  0  0  0  0
  2 14  2  0  0  0  0
  3 15  2  0  0  0  0
  4 13  1  0  0  0  0
  5  9  1  0  0  0  0
  5 14  1  0  0  0  0
  6 12  1  0  0  0  0
  6 16  1  0  0  0  0
  7 13  2  0  0  0  0
  7 15  1  0  0  0  0
  8 13  1  0  0  0  0
  8 17  1  0  0  0  0
  9 10  1  0  0  0  0
 10 18  1  0  0  0  0
 11 12  2  0  0  0  0
 11 19  1  0  0  0  0
 14 16  1  0  0  0  0
 15 17  1  0  0  0  0
 16 19  2  0  0  0  0
 17 18  2  0  0  0  0
 18 19  1  0  0  0  0
  4 20  1  0  0  0  0
  4 21  1  0  0  0  0
  5 22  1  0  0  0  0
  6 23  1  0  0  0  0
  8 24  1  0  0  0  0
  9 25  1  0  0  0  0
  9 26  1  0  0  0  0
 10 27  1  0  0  0  0
 10 28  1  0  0  0  0
 11 29  1  0  0  0  0
M  END
$$$$
