NW1_A_401
          05071912473D 1   1.00000     0.00000     0
            
 35 36  0  0  0  0            999 V2000
   -1.0147   30.5520    9.5189 O   0  0  0  0  0  0  0  0  0  0  0  0
    0.8814   27.0411    8.6468 O   0  0  0  0  0  0  0  0  0  0  0  0
    3.5112   28.9840    5.3342 N   0  0  0  0  0  0  0  0  0  0  0  0
    0.4847   31.7347    7.6256 N   0  0  0  0  0  0  0  0  0  0  0  0
   -0.4270   29.4887    9.2608 N   0  0  0  0  0  0  0  0  0  0  0  0
    2.1742   28.0602    6.9647 N   0  0  0  0  0  0  0  0  0  0  0  0
    1.9993   30.2738    6.4517 N   0  0  0  0  0  0  0  0  0  0  0  0
    1.7897   25.9199    8.4711 C   0  0  0  0  0  0  0  0  0  0  0  0
    0.2993   22.4745   10.7456 C   0  0  0  0  0  0  0  0  0  0  0  0
   -0.3417   23.8751   11.0342 C   0  0  0  0  0  0  0  0  0  0  0  0
    1.8380   22.6810   10.6752 C   0  0  0  0  0  0  0  0  0  0  0  0
   -0.0821   24.8028    9.8103 C   0  0  0  0  0  0  0  0  0  0  0  0
    2.1152   23.5491    9.4036 C   0  0  0  0  0  0  0  0  0  0  0  0
    2.5713   29.1716    6.2258 C   0  0  0  0  0  0  0  0  0  0  0  0
    1.2146   28.1856    7.9197 C   0  0  0  0  0  0  0  0  0  0  0  0
    0.9684   30.5375    7.4658 C   0  0  0  0  0  0  0  0  0  0  0  0
    0.5549   29.4988    8.1932 C   0  0  0  0  0  0  0  0  0  0  0  0
    1.4383   24.9359    9.5894 C   0  0  0  0  0  0  0  0  0  0  0  0
    3.8322   29.7500    4.7772 H   0  0  0  0  0  0  0  0  0  0  0  0
    3.9083   28.0746    5.2101 H   0  0  0  0  0  0  0  0  0  0  0  0
   -0.2164   31.9023    8.3187 H   0  0  0  0  0  0  0  0  0  0  0  0
    0.8140   32.4873    7.0554 H   0  0  0  0  0  0  0  0  0  0  0  0
    2.7393   26.2218    8.5558 H   0  0  0  0  0  0  0  0  0  0  0  0
    1.6534   25.4958    7.5758 H   0  0  0  0  0  0  0  0  0  0  0  0
   -0.0386   22.1154    9.8756 H   0  0  0  0  0  0  0  0  0  0  0  0
    0.0724   21.8355   11.4806 H   0  0  0  0  0  0  0  0  0  0  0  0
    0.0731   24.2732   11.8525 H   0  0  0  0  0  0  0  0  0  0  0  0
   -1.3262   23.7721   11.1760 H   0  0  0  0  0  0  0  0  0  0  0  0
    2.3014   21.7982   10.5980 H   0  0  0  0  0  0  0  0  0  0  0  0
    2.1602   23.1560   11.4942 H   0  0  0  0  0  0  0  0  0  0  0  0
   -0.4751   25.7055    9.9853 H   0  0  0  0  0  0  0  0  0  0  0  0
   -0.5053   24.4074    8.9950 H   0  0  0  0  0  0  0  0  0  0  0  0
    1.7363   23.0951    8.5972 H   0  0  0  0  0  0  0  0  0  0  0  0
    3.1010   23.6689    9.2864 H   0  0  0  0  0  0  0  0  0  0  0  0
    1.8129   25.3218   10.4325 H   0  0  0  0  0  0  0  0  0  0  0  0
  1  5  2  0  0  0  0
  2  8  1  0  0  0  0
  2 15  1  0  0  0  0
  3 14  1  0  0  0  0
  4 16  1  0  0  0  0
  5 17  1  0  0  0  0
  6 14  2  0  0  0  0
  6 15  1  0  0  0  0
  7 14  1  0  0  0  0
  7 16  2  0  0  0  0
  8 18  1  0  0  0  0
  9 10  1  0  0  0  0
  9 11  1  0  0  0  0
 10 12  1  0  0  0  0
 11 13  1  0  0  0  0
 12 18  1  0  0  0  0
 13 18  1  0  0  0  0
 15 17  2  0  0  0  0
 16 17  1  0  0  0  0
  3 19  1  0  0  0  0
  3 20  1  0  0  0  0
  4 21  1  0  0  0  0
  4 22  1  0  0  0  0
  8 23  1  0  0  0  0
  8 24  1  0  0  0  0
  9 25  1  0  0  0  0
  9 26  1  0  0  0  0
 10 27  1  0  0  0  0
 10 28  1  0  0  0  0
 11 29  1  0  0  0  0
 11 30  1  0  0  0  0
 12 31  1  0  0  0  0
 12 32  1  0  0  0  0
 13 33  1  0  0  0  0
 13 34  1  0  0  0  0
 18 35  1  0  0  0  0
M  END
$$$$
