106_A_299
          05071912473D 1   1.00000     0.00000     0
            
 34 36  0  0  0  0            999 V2000
   -3.4264   28.2399   11.0154 Br  0  0  0  0  0  0  0  0  0  0  0  0
    6.7838   23.7143    7.5833 S   0  0  0  0  0  0  0  0  0  0  0  0
    7.8394   24.5704    8.0500 O   0  0  0  0  0  0  0  0  0  0  0  0
    6.9536   23.0635    6.3173 O   0  0  0  0  0  0  0  0  0  0  0  0
    1.8914   30.7636    6.0320 O   0  0  0  0  0  0  0  0  0  0  0  0
    6.5293   22.5232    8.6861 N   0  0  0  0  0  0  0  0  0  0  0  0
    2.6558   28.0768    7.1511 N   0  0  0  0  0  0  0  0  0  0  0  0
    1.4286   28.1104    7.3277 N   0  0  0  0  0  0  0  0  0  0  0  0
    0.0828   31.5761    7.2773 N   0  0  0  0  0  0  0  0  0  0  0  0
   -2.7890   30.7212    9.7050 C   0  0  0  0  0  0  0  0  0  0  0  0
    5.5063   25.8065    6.3142 C   0  0  0  0  0  0  0  0  0  0  0  0
    4.2736   24.8155    8.3514 C   0  0  0  0  0  0  0  0  0  0  0  0
    4.5326   26.9027    6.2405 C   0  0  0  0  0  0  0  0  0  0  0  0
    3.3143   25.9149    8.2874 C   0  0  0  0  0  0  0  0  0  0  0  0
   -1.9475   31.5756    8.8470 C   0  0  0  0  0  0  0  0  0  0  0  0
   -1.2397   28.7016    9.1669 C   0  0  0  0  0  0  0  0  0  0  0  0
   -2.4173   29.2890    9.8613 C   0  0  0  0  0  0  0  0  0  0  0  0
    5.3736   24.7566    7.3561 C   0  0  0  0  0  0  0  0  0  0  0  0
    0.9772   30.6426    6.8431 C   0  0  0  0  0  0  0  0  0  0  0  0
    3.4459   26.9784    7.2320 C   0  0  0  0  0  0  0  0  0  0  0  0
   -0.8003   30.9946    8.1217 C   0  0  0  0  0  0  0  0  0  0  0  0
    0.6900   29.3485    7.5048 C   0  0  0  0  0  0  0  0  0  0  0  0
   -0.4644   29.5969    8.2924 C   0  0  0  0  0  0  0  0  0  0  0  0
    5.7953   21.9242    8.3662 H   0  0  0  0  0  0  0  0  0  0  0  0
    7.3678   21.9907    8.8012 H   0  0  0  0  0  0  0  0  0  0  0  0
    3.1048   28.9420    6.9278 H   0  0  0  0  0  0  0  0  0  0  0  0
    0.0800   32.5405    7.0127 H   0  0  0  0  0  0  0  0  0  0  0  0
   -3.5907   31.0956   10.1709 H   0  0  0  0  0  0  0  0  0  0  0  0
    6.2619   25.7666    5.6604 H   0  0  0  0  0  0  0  0  0  0  0  0
    4.1906   24.1114    9.0566 H   0  0  0  0  0  0  0  0  0  0  0  0
    4.6066   27.5937    5.5214 H   0  0  0  0  0  0  0  0  0  0  0  0
    2.5658   25.9607    8.9489 H   0  0  0  0  0  0  0  0  0  0  0  0
   -2.1542   32.5498    8.7562 H   0  0  0  0  0  0  0  0  0  0  0  0
   -0.9863   27.7419    9.2888 H   0  0  0  0  0  0  0  0  0  0  0  0
  1 17  1  0  0  0  0
  2  3  2  0  0  0  0
  2  4  2  0  0  0  0
  2  6  1  0  0  0  0
  2 18  1  0  0  0  0
  5 19  2  0  0  0  0
  7  8  1  0  0  0  0
  7 20  1  0  0  0  0
  8 22  2  0  0  0  0
  9 19  1  0  0  0  0
  9 21  1  0  0  0  0
 10 15  1  0  0  0  0
 10 17  2  0  0  0  0
 11 13  2  0  0  0  0
 11 18  1  0  0  0  0
 12 14  1  0  0  0  0
 12 18  2  0  0  0  0
 13 20  1  0  0  0  0
 14 20  2  0  0  0  0
 15 21  2  0  0  0  0
 16 17  1  0  0  0  0
 16 23  2  0  0  0  0
 19 22  1  0  0  0  0
 21 23  1  0  0  0  0
 22 23  1  0  0  0  0
  6 24  1  0  0  0  0
  6 25  1  0  0  0  0
  7 26  1  0  0  0  0
  9 27  1  0  0  0  0
 10 28  1  0  0  0  0
 11 29  1  0  0  0  0
 12 30  1  0  0  0  0
 13 31  1  0  0  0  0
 14 32  1  0  0  0  0
 15 33  1  0  0  0  0
 16 34  1  0  0  0  0
M  END
$$$$
