I17_A_400
          05071912473D 1   1.00000     0.00000     0
            
 61 65  0  0  0  0            999 V2000
   -2.6213   24.7438   13.9109 N   0  0  0  0  0  0  0  0  0  0  0  0
    3.6967   27.9040    6.2944 N   0  0  0  0  0  0  0  0  0  0  0  0
    1.7066   30.4101    6.4694 N   0  0  0  0  0  0  0  0  0  0  0  0
    1.9116   26.8341    7.6169 N   0  0  0  0  0  0  0  0  0  0  0  0
    0.2424   25.6337    9.0230 N   0  0  0  0  0  0  0  0  0  0  0  0
   -0.0983   27.9070    8.3271 N   0  0  0  0  0  0  0  0  0  0  0  0
   -0.2577   30.2072    7.5944 N   0  0  0  0  0  0  0  0  0  0  0  0
    0.5902   31.0462    6.8448 C   0  0  0  0  0  0  0  0  0  0  0  0
    4.4435   26.6514    6.3650 C   0  0  0  0  0  0  0  0  0  0  0  0
    5.7164   24.5544    3.0022 C   0  0  0  0  0  0  0  0  0  0  0  0
   -3.4455   29.8440    9.5063 C   0  0  0  0  0  0  0  0  0  0  0  0
   -2.8626   31.0041   10.1082 C   0  0  0  0  0  0  0  0  0  0  0  0
    6.2870   25.7662    3.3534 C   0  0  0  0  0  0  0  0  0  0  0  0
    4.6879   24.0182    3.7957 C   0  0  0  0  0  0  0  0  0  0  0  0
   -1.7764   26.3463   12.2209 C   0  0  0  0  0  0  0  0  0  0  0  0
   -2.0787   24.0003   11.6256 C   0  0  0  0  0  0  0  0  0  0  0  0
   -0.8323   26.5805   11.0413 C   0  0  0  0  0  0  0  0  0  0  0  0
   -1.2006   24.0797   10.3671 C   0  0  0  0  0  0  0  0  0  0  0  0
   -2.9109   29.8264    8.1517 C   0  0  0  0  0  0  0  0  0  0  0  0
   -1.4442   30.8342    9.6986 C   0  0  0  0  0  0  0  0  0  0  0  0
    5.8464   26.4628    4.4931 C   0  0  0  0  0  0  0  0  0  0  0  0
    4.2460   24.7233    4.9490 C   0  0  0  0  0  0  0  0  0  0  0  0
    0.6762   26.8646    8.2747 C   0  0  0  0  0  0  0  0  0  0  0  0
   -1.6794   24.9303   12.7368 C   0  0  0  0  0  0  0  0  0  0  0  0
    2.4254   27.9579    6.9479 C   0  0  0  0  0  0  0  0  0  0  0  0
   -1.0545   25.6241    9.9129 C   0  0  0  0  0  0  0  0  0  0  0  0
    0.3838   28.9938    7.6810 C   0  0  0  0  0  0  0  0  0  0  0  0
   -1.5811   30.5142    8.1999 C   0  0  0  0  0  0  0  0  0  0  0  0
    4.8296   25.9328    5.2778 C   0  0  0  0  0  0  0  0  0  0  0  0
    1.5791   29.1490    6.9790 C   0  0  0  0  0  0  0  0  0  0  0  0
   -2.5523   23.8047   14.2476 H   0  0  0  0  0  0  0  0  0  0  0  0
   -2.3726   25.3792   14.6419 H   0  0  0  0  0  0  0  0  0  0  0  0
    4.0613   28.6968    5.8061 H   0  0  0  0  0  0  0  0  0  0  0  0
    0.7920   24.8012    8.9530 H   0  0  0  0  0  0  0  0  0  0  0  0
    0.3838   31.9987    6.6209 H   0  0  0  0  0  0  0  0  0  0  0  0
    3.8819   26.0319    6.9135 H   0  0  0  0  0  0  0  0  0  0  0  0
    5.2850   26.8655    6.8609 H   0  0  0  0  0  0  0  0  0  0  0  0
    6.0337   24.0646    2.1902 H   0  0  0  0  0  0  0  0  0  0  0  0
   -4.4428   29.9170    9.4916 H   0  0  0  0  0  0  0  0  0  0  0  0
   -3.1792   29.0173   10.0020 H   0  0  0  0  0  0  0  0  0  0  0  0
   -2.9637   30.9947   11.1030 H   0  0  0  0  0  0  0  0  0  0  0  0
   -3.2549   31.8475    9.7412 H   0  0  0  0  0  0  0  0  0  0  0  0
    7.0197   26.1498    2.7912 H   0  0  0  0  0  0  0  0  0  0  0  0
    4.2685   23.1442    3.5503 H   0  0  0  0  0  0  0  0  0  0  0  0
   -2.7156   26.5202   11.9246 H   0  0  0  0  0  0  0  0  0  0  0  0
   -1.5373   26.9777   12.9586 H   0  0  0  0  0  0  0  0  0  0  0  0
   -2.0373   23.0640   11.9744 H   0  0  0  0  0  0  0  0  0  0  0  0
   -3.0188   24.2167   11.3623 H   0  0  0  0  0  0  0  0  0  0  0  0
    0.1094   26.4803   11.3626 H   0  0  0  0  0  0  0  0  0  0  0  0
   -0.9715   27.5109   10.7021 H   0  0  0  0  0  0  0  0  0  0  0  0
   -1.6250   23.5536    9.6301 H   0  0  0  0  0  0  0  0  0  0  0  0
   -0.2959   23.7034   10.5669 H   0  0  0  0  0  0  0  0  0  0  0  0
   -3.5273   30.3126    7.5323 H   0  0  0  0  0  0  0  0  0  0  0  0
   -2.7991   28.8834    7.8383 H   0  0  0  0  0  0  0  0  0  0  0  0
   -1.0108   30.0807   10.1930 H   0  0  0  0  0  0  0  0  0  0  0  0
   -0.9207   31.6736    9.8447 H   0  0  0  0  0  0  0  0  0  0  0  0
    6.2640   27.3378    4.7381 H   0  0  0  0  0  0  0  0  0  0  0  0
    3.5165   24.3461    5.5195 H   0  0  0  0  0  0  0  0  0  0  0  0
   -0.7404   24.7362   13.0208 H   0  0  0  0  0  0  0  0  0  0  0  0
   -1.8482   25.9034    9.3725 H   0  0  0  0  0  0  0  0  0  0  0  0
   -1.7910   31.4106    7.8093 H   0  0  0  0  0  0  0  0  0  0  0  0
  1 24  1  0  0  0  0
  2  9  1  0  0  0  0
  2 25  1  0  0  0  0
  3  8  2  0  0  0  0
  3 30  1  0  0  0  0
  4 23  1  0  0  0  0
  4 25  2  0  0  0  0
  5 23  1  0  0  0  0
  5 26  1  0  0  0  0
  6 23  2  0  0  0  0
  6 27  1  0  0  0  0
  7  8  1  0  0  0  0
  7 27  1  0  0  0  0
  7 28  1  0  0  0  0
  9 29  1  0  0  0  0
 10 13  2  0  0  0  0
 10 14  1  0  0  0  0
 11 12  1  0  0  0  0
 11 19  1  0  0  0  0
 12 20  1  0  0  0  0
 13 21  1  0  0  0  0
 14 22  2  0  0  0  0
 15 17  1  0  0  0  0
 15 24  1  0  0  0  0
 16 18  1  0  0  0  0
 16 24  1  0  0  0  0
 17 26  1  0  0  0  0
 18 26  1  0  0  0  0
 19 28  1  0  0  0  0
 20 28  1  0  0  0  0
 21 29  2  0  0  0  0
 22 29  1  0  0  0  0
 25 30  1  0  0  0  0
 27 30  2  0  0  0  0
  1 31  1  0  0  0  0
  1 32  1  0  0  0  0
  2 33  1  0  0  0  0
  5 34  1  0  0  0  0
  8 35  1  0  0  0  0
  9 36  1  0  0  0  0
  9 37  1  0  0  0  0
 10 38  1  0  0  0  0
 11 39  1  0  0  0  0
 11 40  1  0  0  0  0
 12 41  1  0  0  0  0
 12 42  1  0  0  0  0
 13 43  1  0  0  0  0
 14 44  1  0  0  0  0
 15 45  1  0  0  0  0
 15 46  1  0  0  0  0
 16 47  1  0  0  0  0
 16 48  1  0  0  0  0
 17 49  1  0  0  0  0
 17 50  1  0  0  0  0
 18 51  1  0  0  0  0
 18 52  1  0  0  0  0
 19 53  1  0  0  0  0
 19 54  1  0  0  0  0
 20 55  1  0  0  0  0
 20 56  1  0  0  0  0
 21 57  1  0  0  0  0
 22 58  1  0  0  0  0
 24 59  1  0  0  0  0
 26 60  1  0  0  0  0
 28 61  1  0  0  0  0
M  END
$$$$
