2PU_A_501
          05071912473D 1   1.00000     0.00000     0
            
 49 53  0  0  0  0            999 V2000
    2.2159   30.6114    6.7075 O   0  0  0  0  0  0  0  0  0  0  0  0
   -3.5847   28.5417   11.3196 O   0  0  0  0  0  0  0  0  0  0  0  0
    3.0533   26.8722    8.3367 N   0  0  0  0  0  0  0  0  0  0  0  0
    3.5015   25.6115    8.4668 N   0  0  0  0  0  0  0  0  0  0  0  0
    6.6908   24.0701    7.4902 N   0  0  0  0  0  0  0  0  0  0  0  0
    3.5518   28.7944    6.9191 N   0  0  0  0  0  0  0  0  0  0  0  0
    1.5487   28.8762    7.9652 N   0  0  0  0  0  0  0  0  0  0  0  0
   -1.5709   27.3190   11.0468 N   0  0  0  0  0  0  0  0  0  0  0  0
    7.0420   22.6323    7.2417 C   0  0  0  0  0  0  0  0  0  0  0  0
   -1.9610   25.9773   11.4589 C   0  0  0  0  0  0  0  0  0  0  0  0
    5.8288   21.8188    7.7943 C   0  0  0  0  0  0  0  0  0  0  0  0
   -0.8006   25.1366   10.8734 C   0  0  0  0  0  0  0  0  0  0  0  0
   -1.4731   31.1039    8.2612 C   0  0  0  0  0  0  0  0  0  0  0  0
    4.7426   22.9043    8.1182 C   0  0  0  0  0  0  0  0  0  0  0  0
   -0.2215   30.5680    7.8823 C   0  0  0  0  0  0  0  0  0  0  0  0
   -0.2646   25.9700    9.7248 C   0  0  0  0  0  0  0  0  0  0  0  0
   -2.2920   30.4305    9.2255 C   0  0  0  0  0  0  0  0  0  0  0  0
    4.6793   26.6296    6.8310 C   0  0  0  0  0  0  0  0  0  0  0  0
    2.4350   29.4693    7.1562 C   0  0  0  0  0  0  0  0  0  0  0  0
    3.7630   27.4901    7.3396 C   0  0  0  0  0  0  0  0  0  0  0  0
   -2.4625   28.3454   10.8138 C   0  0  0  0  0  0  0  0  0  0  0  0
    4.5067   25.4317    7.5550 C   0  0  0  0  0  0  0  0  0  0  0  0
    5.2634   24.1396    7.3524 C   0  0  1  0  0  0  0  0  0  0  0  0
    0.2748   29.3490    8.4448 C   0  0  0  0  0  0  0  0  0  0  0  0
   -0.3153   27.3835   10.2730 C   0  0  1  0  0  0  0  0  0  0  0  0
   -1.8082   29.2265    9.8004 C   0  0  0  0  0  0  0  0  0  0  0  0
   -0.5187   28.6775    9.4199 C   0  0  0  0  0  0  0  0  0  0  0  0
    2.3234   27.2901    8.8775 H   0  0  0  0  0  0  0  0  0  0  0  0
    7.1369   24.6611    6.8180 H   0  0  0  0  0  0  0  0  0  0  0  0
    4.2811   29.2509    6.4095 H   0  0  0  0  0  0  0  0  0  0  0  0
    1.8107   27.9659    8.2857 H   0  0  0  0  0  0  0  0  0  0  0  0
    7.8807   22.3863    7.7276 H   0  0  0  0  0  0  0  0  0  0  0  0
    7.1619   22.4637    6.2634 H   0  0  0  0  0  0  0  0  0  0  0  0
   -2.8409   25.7135   11.0638 H   0  0  0  0  0  0  0  0  0  0  0  0
   -2.0055   25.8978   12.4548 H   0  0  0  0  0  0  0  0  0  0  0  0
    6.0858   21.3184    8.6210 H   0  0  0  0  0  0  0  0  0  0  0  0
    5.4917   21.1758    7.1066 H   0  0  0  0  0  0  0  0  0  0  0  0
   -1.1359   24.2543   10.5428 H   0  0  0  0  0  0  0  0  0  0  0  0
   -0.0910   24.9868   11.5619 H   0  0  0  0  0  0  0  0  0  0  0  0
   -1.7900   31.9600    7.8531 H   0  0  0  0  0  0  0  0  0  0  0  0
    4.6926   23.0832    9.1007 H   0  0  0  0  0  0  0  0  0  0  0  0
    3.8424   22.6253    7.7839 H   0  0  0  0  0  0  0  0  0  0  0  0
    0.3311   31.0526    7.2042 H   0  0  0  0  0  0  0  0  0  0  0  0
   -0.8429   25.8783    8.9141 H   0  0  0  0  0  0  0  0  0  0  0  0
    0.6728   25.7067    9.4969 H   0  0  0  0  0  0  0  0  0  0  0  0
   -3.1834   30.8005    9.4872 H   0  0  0  0  0  0  0  0  0  0  0  0
    5.3370   26.8066    6.0988 H   0  0  0  0  0  0  0  0  0  0  0  0
    5.1024   23.9136    6.3917 H   0  0  0  0  0  0  0  0  0  0  0  0
    0.4511   27.5205   10.9006 H   0  0  0  0  0  0  0  0  0  0  0  0
  1 19  2  0  0  0  0
  2 21  2  0  0  0  0
  3  4  1  0  0  0  0
  3 20  1  0  0  0  0
  4 22  2  0  0  0  0
  5  9  1  0  0  0  0
  5 23  1  0  0  0  0
  6 19  1  0  0  0  0
  6 20  1  0  0  0  0
  7 19  1  0  0  0  0
  7 24  1  0  0  0  0
  8 10  1  0  0  0  0
  8 21  1  0  0  0  0
  8 25  1  0  0  0  0
  9 11  1  0  0  0  0
 10 12  1  0  0  0  0
 11 14  1  0  0  0  0
 12 16  1  0  0  0  0
 13 15  1  0  0  0  0
 13 17  2  0  0  0  0
 14 23  1  0  0  0  0
 15 24  2  0  0  0  0
 16 25  1  0  0  0  0
 17 26  1  0  0  0  0
 18 20  2  0  0  0  0
 18 22  1  0  0  0  0
 21 26  1  0  0  0  0
 22 23  1  0  0  0  0
 24 27  1  0  0  0  0
 25 27  1  0  0  0  0
 26 27  2  0  0  0  0
  3 28  1  0  0  0  0
  5 29  1  0  0  0  0
  6 30  1  0  0  0  0
  7 31  1  0  0  0  0
  9 32  1  0  0  0  0
  9 33  1  0  0  0  0
 10 34  1  0  0  0  0
 10 35  1  0  0  0  0
 11 36  1  0  0  0  0
 11 37  1  0  0  0  0
 12 38  1  0  0  0  0
 12 39  1  0  0  0  0
 13 40  1  0  0  0  0
 14 41  1  0  0  0  0
 14 42  1  0  0  0  0
 15 43  1  0  0  0  0
 16 44  1  0  0  0  0
 16 45  1  0  0  0  0
 17 46  1  0  0  0  0
 18 47  1  0  0  0  0
 23 48  1  0  0  0  0
 25 49  1  0  0  0  0
M  END
$$$$
