MBP_A_1300
          05071912473D 1   1.00000     0.00000     0
            
 30 31  0  0  0  0            999 V2000
   -1.8975   25.2622   10.1671 O   0  0  0  0  0  0  0  0  0  0  0  0
   -0.3655   27.0368    8.7268 O   0  0  0  0  0  0  0  0  0  0  0  0
    2.9648   28.1907    5.6676 N   0  0  0  0  0  0  0  0  0  0  0  0
   -0.0299   31.3968    7.4908 N   0  0  0  0  0  0  0  0  0  0  0  0
   -1.1051   30.0117    8.7595 N   0  0  0  0  0  0  0  0  0  0  0  0
    1.2824   27.6673    7.2277 N   0  0  0  0  0  0  0  0  0  0  0  0
    1.6197   29.8621    6.4602 N   0  0  0  0  0  0  0  0  0  0  0  0
   -1.4848   22.4999    8.8072 C   0  0  0  0  0  0  0  0  0  0  0  0
   -0.2069   22.9472   10.9203 C   0  0  0  0  0  0  0  0  0  0  0  0
   -1.0159   31.2495    8.3639 C   0  0  0  0  0  0  0  0  0  0  0  0
   -0.1461   25.6677    8.5233 C   0  0  0  0  0  0  0  0  0  0  0  0
    1.9399   28.5728    6.4417 C   0  0  0  0  0  0  0  0  0  0  0  0
    0.2468   27.9574    7.9885 C   0  0  0  0  0  0  0  0  0  0  0  0
   -0.9506   24.8239    9.4735 C   0  0  0  0  0  0  0  0  0  0  0  0
    0.5787   30.2374    7.2379 C   0  0  0  0  0  0  0  0  0  0  0  0
   -0.1417   29.3455    8.0949 C   0  0  0  0  0  0  0  0  0  0  0  0
   -0.4812   23.3992    9.4998 C   0  0  0  0  0  0  0  0  0  0  0  0
    3.4380   28.8620    5.0971 H   0  0  0  0  0  0  0  0  0  0  0  0
    3.2566   27.2342    5.6605 H   0  0  0  0  0  0  0  0  0  0  0  0
   -1.7543   29.6343    9.4199 H   0  0  0  0  0  0  0  0  0  0  0  0
   -1.6397   22.8286    7.8755 H   0  0  0  0  0  0  0  0  0  0  0  0
   -1.1296   21.5656    8.7763 H   0  0  0  0  0  0  0  0  0  0  0  0
   -2.3476   22.5119    9.3126 H   0  0  0  0  0  0  0  0  0  0  0  0
    0.4578   23.5629   11.3435 H   0  0  0  0  0  0  0  0  0  0  0  0
   -1.0577   22.9634   11.4454 H   0  0  0  0  0  0  0  0  0  0  0  0
    0.1603   22.0171   10.9091 H   0  0  0  0  0  0  0  0  0  0  0  0
   -1.6115   31.9892    8.6770 H   0  0  0  0  0  0  0  0  0  0  0  0
    0.8250   25.4721    8.6599 H   0  0  0  0  0  0  0  0  0  0  0  0
   -0.4044   25.4347    7.5858 H   0  0  0  0  0  0  0  0  0  0  0  0
    0.3780   23.3496    8.9905 H   0  0  0  0  0  0  0  0  0  0  0  0
  1 14  2  0  0  0  0
  2 11  1  0  0  0  0
  2 13  1  0  0  0  0
  3 12  1  0  0  0  0
  4 10  2  0  0  0  0
  4 15  1  0  0  0  0
  5 10  1  0  0  0  0
  5 16  1  0  0  0  0
  6 12  2  0  0  0  0
  6 13  1  0  0  0  0
  7 12  1  0  0  0  0
  7 15  2  0  0  0  0
  8 17  1  0  0  0  0
  9 17  1  0  0  0  0
 11 14  1  0  0  0  0
 13 16  2  0  0  0  0
 14 17  1  0  0  0  0
 15 16  1  0  0  0  0
  3 18  1  0  0  0  0
  3 19  1  0  0  0  0
  5 20  1  0  0  0  0
  8 21  1  0  0  0  0
  8 22  1  0  0  0  0
  8 23  1  0  0  0  0
  9 24  1  0  0  0  0
  9 25  1  0  0  0  0
  9 26  1  0  0  0  0
 10 27  1  0  0  0  0
 11 28  1  0  0  0  0
 11 29  1  0  0  0  0
 17 30  1  0  0  0  0
M  END
$$$$
