FAP_A_1300
          05071912473D 1   1.00000     0.00000     0
            
 53 55  0  0  0  0            999 V2000
   -3.8769   27.8435    9.6836 F   0  0  0  0  0  0  0  0  0  0  0  0
    0.8608   28.0263   10.9164 F   0  0  0  0  0  0  0  0  0  0  0  0
    6.3017   21.3414    8.5289 O   0  0  0  0  0  0  0  0  0  0  0  0
    5.3244   23.7456    7.1265 O   0  0  0  0  0  0  0  0  0  0  0  0
    1.5205   30.8249    6.7295 N   0  0  0  0  0  0  0  0  0  0  0  0
   -0.5098   30.9225    7.9714 N   0  0  0  0  0  0  0  0  0  0  0  0
    2.9284   28.8964    6.6112 N   0  0  0  0  0  0  0  0  0  0  0  0
   -1.4022   29.1107    9.2472 N   0  0  0  0  0  0  0  0  0  0  0  0
    5.7195   18.6946    7.5462 N   0  0  0  0  0  0  0  0  0  0  0  0
    6.6016   18.2179    6.4475 C   0  0  0  0  0  0  0  0  0  0  0  0
    4.8822   17.5661    8.0521 C   0  0  0  0  0  0  0  0  0  0  0  0
    0.4259   31.4475    7.1763 C   0  0  0  0  0  0  0  0  0  0  0  0
    4.5739   22.5086    7.2850 C   0  0  0  0  0  0  0  0  0  0  0  0
    4.8861   19.8846    7.1682 C   0  0  0  0  0  0  0  0  0  0  0  0
   -1.8784   25.8703   12.0893 C   0  0  0  0  0  0  0  0  0  0  0  0
   -2.9718   26.3471   11.3247 C   0  0  0  0  0  0  0  0  0  0  0  0
   -0.5977   26.4484   11.9367 C   0  0  0  0  0  0  0  0  0  0  0  0
    4.3124   25.6617    8.1081 C   0  0  0  0  0  0  0  0  0  0  0  0
    4.5872   25.6388    5.6599 C   0  0  0  0  0  0  0  0  0  0  0  0
    3.7144   26.9363    8.0251 C   0  0  0  0  0  0  0  0  0  0  0  0
    3.9851   26.9205    5.5776 C   0  0  0  0  0  0  0  0  0  0  0  0
    0.7768   28.8765    7.9579 C   0  0  0  0  0  0  0  0  0  0  0  0
   -2.7932   27.4109   10.4020 C   0  0  0  0  0  0  0  0  0  0  0  0
   -0.3994   27.5114   11.0190 C   0  0  0  0  0  0  0  0  0  0  0  0
    1.7213   29.5436    7.1040 C   0  0  0  0  0  0  0  0  0  0  0  0
   -0.3606   29.6426    8.3763 C   0  0  0  0  0  0  0  0  0  0  0  0
    5.5029   21.2865    7.3959 C   0  0  2  0  0  0  0  0  0  0  0  0
    4.7531   25.0005    6.9310 C   0  0  0  0  0  0  0  0  0  0  0  0
    3.5414   27.5797    6.7557 C   0  0  0  0  0  0  0  0  0  0  0  0
   -1.5065   28.0108   10.2273 C   0  0  0  0  0  0  0  0  0  0  0  0
    6.8879   20.5320    8.5630 H   0  0  0  0  0  0  0  0  0  0  0  0
    3.4714   29.5032    6.0307 H   0  0  0  0  0  0  0  0  0  0  0  0
   -2.2600   29.6171    9.1588 H   0  0  0  0  0  0  0  0  0  0  0  0
    7.1589   18.9781    6.1137 H   0  0  0  0  0  0  0  0  0  0  0  0
    7.1984   17.4923    6.7902 H   0  0  0  0  0  0  0  0  0  0  0  0
    6.0404   17.8626    5.6999 H   0  0  0  0  0  0  0  0  0  0  0  0
    4.2921   17.8935    8.7900 H   0  0  0  0  0  0  0  0  0  0  0  0
    4.3180   17.2096    7.3074 H   0  0  0  0  0  0  0  0  0  0  0  0
    5.4760   16.8394    8.3977 H   0  0  0  0  0  0  0  0  0  0  0  0
    0.2950   32.3961    6.8881 H   0  0  0  0  0  0  0  0  0  0  0  0
    3.9754   22.3894    6.4928 H   0  0  0  0  0  0  0  0  0  0  0  0
    4.0197   22.5704    8.1151 H   0  0  0  0  0  0  0  0  0  0  0  0
    4.0399   19.8392    7.6990 H   0  0  0  0  0  0  0  0  0  0  0  0
    4.6734   19.8049    6.1943 H   0  0  0  0  0  0  0  0  0  0  0  0
   -2.0132   25.1222   12.7391 H   0  0  0  0  0  0  0  0  0  0  0  0
   -3.8746   25.9317   11.4358 H   0  0  0  0  0  0  0  0  0  0  0  0
    0.1710   26.1069   12.4775 H   0  0  0  0  0  0  0  0  0  0  0  0
    4.4266   25.2219    8.9990 H   0  0  0  0  0  0  0  0  0  0  0  0
    4.8969   25.1794    4.8275 H   0  0  0  0  0  0  0  0  0  0  0  0
    3.4083   27.3954    8.8592 H   0  0  0  0  0  0  0  0  0  0  0  0
    3.8725   27.3617    4.6874 H   0  0  0  0  0  0  0  0  0  0  0  0
    0.9063   27.9274    8.2452 H   0  0  0  0  0  0  0  0  0  0  0  0
    6.1453   21.3976    6.6376 H   0  0  0  0  0  0  0  0  0  0  0  0
  1 23  1  0  0  0  0
  2 24  1  0  0  0  0
  3 27  1  0  0  0  0
  4 13  1  0  0  0  0
  4 28  1  0  0  0  0
  5 12  2  0  0  0  0
  5 25  1  0  0  0  0
  6 12  1  0  0  0  0
  6 26  2  0  0  0  0
  7 25  1  0  0  0  0
  7 29  1  0  0  0  0
  8 26  1  0  0  0  0
  8 30  1  0  0  0  0
  9 10  1  0  0  0  0
  9 11  1  0  0  0  0
  9 14  1  0  0  0  0
 13 27  1  0  0  0  0
 14 27  1  0  0  0  0
 15 16  2  0  0  0  0
 15 17  1  0  0  0  0
 16 23  1  0  0  0  0
 17 24  2  0  0  0  0
 18 20  2  0  0  0  0
 18 28  1  0  0  0  0
 19 21  1  0  0  0  0
 19 28  2  0  0  0  0
 20 29  1  0  0  0  0
 21 29  2  0  0  0  0
 22 25  2  0  0  0  0
 22 26  1  0  0  0  0
 23 30  2  0  0  0  0
 24 30  1  0  0  0  0
  3 31  1  0  0  0  0
  7 32  1  0  0  0  0
  8 33  1  0  0  0  0
 10 34  1  0  0  0  0
 10 35  1  0  0  0  0
 10 36  1  0  0  0  0
 11 37  1  0  0  0  0
 11 38  1  0  0  0  0
 11 39  1  0  0  0  0
 12 40  1  0  0  0  0
 13 41  1  0  0  0  0
 13 42  1  0  0  0  0
 14 43  1  0  0  0  0
 14 44  1  0  0  0  0
 15 45  1  0  0  0  0
 16 46  1  0  0  0  0
 17 47  1  0  0  0  0
 18 48  1  0  0  0  0
 19 49  1  0  0  0  0
 20 50  1  0  0  0  0
 21 51  1  0  0  0  0
 22 52  1  0  0  0  0
 27 53  1  0  0  0  0
M  END
$$$$
