FAL_A_301
          05071912473D 1   1.00000     0.00000     0
            
 53 55  0  0  0  0            999 V2000
    0.0265   23.5756    8.2515 Cl  0  0  0  0  0  0  0  0  0  0  0  0
   -1.6456   28.1311   12.3010 Cl  0  0  0  0  0  0  0  0  0  0  0  0
    6.0368   21.0170    8.1874 O   0  0  0  0  0  0  0  0  0  0  0  0
    4.9197   23.4484    7.7966 O   0  0  0  0  0  0  0  0  0  0  0  0
    1.6335   30.6702    6.8224 N   0  0  0  0  0  0  0  0  0  0  0  0
    0.9785   28.7389    8.0057 N   0  0  0  0  0  0  0  0  0  0  0  0
    2.9904   28.7246    6.7428 N   0  0  0  0  0  0  0  0  0  0  0  0
   -1.0044   28.5654    9.3275 N   0  0  0  0  0  0  0  0  0  0  0  0
    4.5696   18.7289    7.8998 N   0  0  0  0  0  0  0  0  0  0  0  0
    4.3544   18.8858    6.4314 C   0  0  0  0  0  0  0  0  0  0  0  0
    4.0770   17.3963    8.3521 C   0  0  0  0  0  0  0  0  0  0  0  0
    4.0176   22.3879    8.2435 C   0  0  0  0  0  0  0  0  0  0  0  0
    0.5218   31.3170    7.2741 C   0  0  0  0  0  0  0  0  0  0  0  0
    3.9754   19.8259    8.7358 C   0  0  0  0  0  0  0  0  0  0  0  0
   -0.4311   30.6758    8.1377 C   0  0  0  0  0  0  0  0  0  0  0  0
   -0.7329   24.5086   10.7257 C   0  0  0  0  0  0  0  0  0  0  0  0
   -1.1062   25.5424   11.6186 C   0  0  0  0  0  0  0  0  0  0  0  0
    3.5635   25.3882    8.4024 C   0  0  0  0  0  0  0  0  0  0  0  0
    4.9139   25.4238    6.3465 C   0  0  0  0  0  0  0  0  0  0  0  0
    3.1059   26.6863    8.1234 C   0  0  0  0  0  0  0  0  0  0  0  0
    4.4501   26.7377    6.0641 C   0  0  0  0  0  0  0  0  0  0  0  0
   -0.5435   26.1398    8.9228 C   0  0  0  0  0  0  0  0  0  0  0  0
    1.8073   29.4039    7.2091 C   0  0  0  0  0  0  0  0  0  0  0  0
   -0.4521   24.8188    9.3781 C   0  0  0  0  0  0  0  0  0  0  0  0
   -1.1947   26.8835   11.1580 C   0  0  0  0  0  0  0  0  0  0  0  0
   -0.1267   29.3240    8.4724 C   0  0  0  0  0  0  0  0  0  0  0  0
    4.7665   21.1647    8.8187 C   0  0  1  0  0  0  0  0  0  0  0  0
    4.4762   24.7446    7.5148 C   0  0  0  0  0  0  0  0  0  0  0  0
    3.5326   27.3793    6.9487 C   0  0  0  0  0  0  0  0  0  0  0  0
   -0.9158   27.1925    9.7985 C   0  0  0  0  0  0  0  0  0  0  0  0
    6.5086   20.2224    8.5696 H   0  0  0  0  0  0  0  0  0  0  0  0
    3.5635   29.2933    6.1527 H   0  0  0  0  0  0  0  0  0  0  0  0
   -1.8075   29.0661    9.6505 H   0  0  0  0  0  0  0  0  0  0  0  0
    4.6881   19.7821    6.1395 H   0  0  0  0  0  0  0  0  0  0  0  0
    4.8527   18.1694    5.9431 H   0  0  0  0  0  0  0  0  0  0  0  0
    3.3782   18.8109    6.2277 H   0  0  0  0  0  0  0  0  0  0  0  0
    4.2261   17.3023    9.3365 H   0  0  0  0  0  0  0  0  0  0  0  0
    3.1001   17.3172    8.1539 H   0  0  0  0  0  0  0  0  0  0  0  0
    4.5745   16.6756    7.8693 H   0  0  0  0  0  0  0  0  0  0  0  0
    3.4672   22.0878    7.4644 H   0  0  0  0  0  0  0  0  0  0  0  0
    3.4175   22.7573    8.9530 H   0  0  0  0  0  0  0  0  0  0  0  0
    0.3650   32.2648    6.9967 H   0  0  0  0  0  0  0  0  0  0  0  0
    3.8784   19.4755    9.6673 H   0  0  0  0  0  0  0  0  0  0  0  0
    3.0714   20.0332    8.3618 H   0  0  0  0  0  0  0  0  0  0  0  0
   -1.2470   31.1430    8.4784 H   0  0  0  0  0  0  0  0  0  0  0  0
   -0.6686   23.5642   11.0483 H   0  0  0  0  0  0  0  0  0  0  0  0
   -1.3078   25.3283   12.5744 H   0  0  0  0  0  0  0  0  0  0  0  0
    3.2491   24.9143    9.2249 H   0  0  0  0  0  0  0  0  0  0  0  0
    5.5513   24.9756    5.7197 H   0  0  0  0  0  0  0  0  0  0  0  0
    2.4723   27.1320    8.7557 H   0  0  0  0  0  0  0  0  0  0  0  0
    4.7677   27.2133    5.2437 H   0  0  0  0  0  0  0  0  0  0  0  0
   -0.3431   26.3448    7.9648 H   0  0  0  0  0  0  0  0  0  0  0  0
    4.9362   21.3493    9.7867 H   0  0  0  0  0  0  0  0  0  0  0  0
  1 24  1  0  0  0  0
  2 25  1  0  0  0  0
  3 27  1  0  0  0  0
  4 12  1  0  0  0  0
  4 28  1  0  0  0  0
  5 13  2  0  0  0  0
  5 23  1  0  0  0  0
  6 23  2  0  0  0  0
  6 26  1  0  0  0  0
  7 23  1  0  0  0  0
  7 29  1  0  0  0  0
  8 26  1  0  0  0  0
  8 30  1  0  0  0  0
  9 10  1  0  0  0  0
  9 11  1  0  0  0  0
  9 14  1  0  0  0  0
 12 27  1  0  0  0  0
 13 15  1  0  0  0  0
 14 27  1  0  0  0  0
 15 26  2  0  0  0  0
 16 17  2  0  0  0  0
 16 24  1  0  0  0  0
 17 25  1  0  0  0  0
 18 20  1  0  0  0  0
 18 28  2  0  0  0  0
 19 21  2  0  0  0  0
 19 28  1  0  0  0  0
 20 29  2  0  0  0  0
 21 29  1  0  0  0  0
 22 24  2  0  0  0  0
 22 30  1  0  0  0  0
 25 30  2  0  0  0  0
  3 31  1  0  0  0  0
  7 32  1  0  0  0  0
  8 33  1  0  0  0  0
 10 34  1  0  0  0  0
 10 35  1  0  0  0  0
 10 36  1  0  0  0  0
 11 37  1  0  0  0  0
 11 38  1  0  0  0  0
 11 39  1  0  0  0  0
 12 40  1  0  0  0  0
 12 41  1  0  0  0  0
 13 42  1  0  0  0  0
 14 43  1  0  0  0  0
 14 44  1  0  0  0  0
 15 45  1  0  0  0  0
 16 46  1  0  0  0  0
 17 47  1  0  0  0  0
 18 48  1  0  0  0  0
 19 49  1  0  0  0  0
 20 50  1  0  0  0  0
 21 51  1  0  0  0  0
 22 52  1  0  0  0  0
 27 53  1  0  0  0  0
M  END
$$$$
