MFP_A_301
          05071912473D 1   1.00000     0.00000     0
            
 60 62  0  0  0  0            999 V2000
    0.1535   28.5542   11.8955 Br  0  0  0  0  0  0  0  0  0  0  0  0
    3.6006   20.8886    9.2904 O   0  0  0  0  0  0  0  0  0  0  0  0
    4.7077   23.8078    7.4276 O   0  0  0  0  0  0  0  0  0  0  0  0
   -2.8099   31.5246   10.8754 N   0  0  0  0  0  0  0  0  0  0  0  0
    1.4891   30.9588    6.6659 N   0  0  0  0  0  0  0  0  0  0  0  0
   -0.5596   30.7897    7.8926 N   0  0  0  0  0  0  0  0  0  0  0  0
    3.0260   29.0847    6.4026 N   0  0  0  0  0  0  0  0  0  0  0  0
    5.8562   20.5681   10.7365 N   0  0  0  0  0  0  0  0  0  0  0  0
   -1.3840   28.6922    9.0569 N   0  0  0  0  0  0  0  0  0  0  0  0
    5.6201   21.1659   12.0745 C   0  0  0  0  0  0  0  0  0  0  0  0
    6.9839   19.5914   10.7444 C   0  0  0  0  0  0  0  0  0  0  0  0
   -0.6204   23.2759   11.3951 C   0  0  0  0  0  0  0  0  0  0  0  0
    4.1508   23.1264    8.5965 C   0  0  0  0  0  0  0  0  0  0  0  0
    0.3480   31.4558    7.1570 C   0  0  0  0  0  0  0  0  0  0  0  0
   -2.7418   30.5580   10.2348 C   0  0  0  0  0  0  0  0  0  0  0  0
   -2.6754   29.3777    9.4530 C   0  0  0  0  0  0  0  0  0  0  0  0
    5.9407   21.5594    9.6232 C   0  0  0  0  0  0  0  0  0  0  0  0
    4.6904   25.6891    5.8465 C   0  0  0  0  0  0  0  0  0  0  0  0
    3.6378   25.8431    8.0453 C   0  0  0  0  0  0  0  0  0  0  0  0
    4.2734   27.0278    5.5740 C   0  0  0  0  0  0  0  0  0  0  0  0
    3.2458   27.1160    7.7869 C   0  0  0  0  0  0  0  0  0  0  0  0
   -1.6533   26.1176    8.9524 C   0  0  0  0  0  0  0  0  0  0  0  0
   -1.4737   24.8136    9.5189 C   0  0  0  0  0  0  0  0  0  0  0  0
    0.8370   28.8741    7.7328 C   0  0  0  0  0  0  0  0  0  0  0  0
   -0.3420   25.7993   11.4490 C   0  0  0  0  0  0  0  0  0  0  0  0
   -0.5169   27.0894   10.8938 C   0  0  0  0  0  0  0  0  0  0  0  0
    4.6603   21.6988    8.7575 C   0  0  1  0  0  0  0  0  0  0  0  0
    4.3537   25.1127    7.1044 C   0  0  0  0  0  0  0  0  0  0  0  0
    1.7688   29.6711    6.9324 C   0  0  0  0  0  0  0  0  0  0  0  0
   -0.3457   29.4778    8.2181 C   0  0  0  0  0  0  0  0  0  0  0  0
    3.5347   27.7252    6.5723 C   0  0  0  0  0  0  0  0  0  0  0  0
   -1.1780   27.2835    9.6367 C   0  0  0  0  0  0  0  0  0  0  0  0
   -0.8147   24.6575   10.7727 C   0  0  0  0  0  0  0  0  0  0  0  0
    3.9231   19.9485    9.4007 H   0  0  0  0  0  0  0  0  0  0  0  0
   -3.7035   31.8871   11.1402 H   0  0  0  0  0  0  0  0  0  0  0  0
    3.5983   29.6994    5.8597 H   0  0  0  0  0  0  0  0  0  0  0  0
    4.8583   21.8116   12.0214 H   0  0  0  0  0  0  0  0  0  0  0  0
    5.3988   20.4424   12.7285 H   0  0  0  0  0  0  0  0  0  0  0  0
    6.4440   21.6464   12.3751 H   0  0  0  0  0  0  0  0  0  0  0  0
    7.1060   19.2158    9.8257 H   0  0  0  0  0  0  0  0  0  0  0  0
    7.8234   20.0539   11.0297 H   0  0  0  0  0  0  0  0  0  0  0  0
    6.7783   18.8499   11.3831 H   0  0  0  0  0  0  0  0  0  0  0  0
   -0.1413   23.3679   12.2680 H   0  0  0  0  0  0  0  0  0  0  0  0
   -1.5125   22.8506   11.5477 H   0  0  0  0  0  0  0  0  0  0  0  0
   -0.0803   22.7049   10.7769 H   0  0  0  0  0  0  0  0  0  0  0  0
    3.1553   23.1003    8.5050 H   0  0  0  0  0  0  0  0  0  0  0  0
    4.3968   23.6460    9.4147 H   0  0  0  0  0  0  0  0  0  0  0  0
    0.1509   32.4158    6.9578 H   0  0  0  0  0  0  0  0  0  0  0  0
   -3.5353   28.9718    9.1434 H   0  0  0  0  0  0  0  0  0  0  0  0
    6.6912   21.2849    9.0220 H   0  0  0  0  0  0  0  0  0  0  0  0
    6.1428   22.4542   10.0215 H   0  0  0  0  0  0  0  0  0  0  0  0
    5.2079   25.1676    5.1681 H   0  0  0  0  0  0  0  0  0  0  0  0
    3.4086   25.4249    8.9242 H   0  0  0  0  0  0  0  0  0  0  0  0
    4.4949   27.4652    4.7025 H   0  0  0  0  0  0  0  0  0  0  0  0
    2.7398   27.6248    8.4834 H   0  0  0  0  0  0  0  0  0  0  0  0
   -2.1150   26.2150    8.0708 H   0  0  0  0  0  0  0  0  0  0  0  0
   -1.8126   24.0088    9.0316 H   0  0  0  0  0  0  0  0  0  0  0  0
    1.0348   27.9147    7.9338 H   0  0  0  0  0  0  0  0  0  0  0  0
    0.1213   25.6974   12.3293 H   0  0  0  0  0  0  0  0  0  0  0  0
    4.8749   21.3512    7.8447 H   0  0  0  0  0  0  0  0  0  0  0  0
  1 26  1  0  0  0  0
  2 27  1  0  0  0  0
  3 13  1  0  0  0  0
  3 28  1  0  0  0  0
  4 15  2  0  0  0  0
  5 14  2  0  0  0  0
  5 29  1  0  0  0  0
  6 14  1  0  0  0  0
  6 30  2  0  0  0  0
  7 29  1  0  0  0  0
  7 31  1  0  0  0  0
  8 10  1  0  0  0  0
  8 11  1  0  0  0  0
  8 17  1  0  0  0  0
  9 16  1  0  0  0  0
  9 30  1  0  0  0  0
  9 32  1  0  0  0  0
 12 33  1  0  0  0  0
 13 27  1  0  0  0  0
 15 16  2  0  0  0  0
 17 27  1  0  0  0  0
 18 20  1  0  0  0  0
 18 28  2  0  0  0  0
 19 21  2  0  0  0  0
 19 28  1  0  0  0  0
 20 31  2  0  0  0  0
 21 31  1  0  0  0  0
 22 23  1  0  0  0  0
 22 32  2  0  0  0  0
 23 33  2  0  0  0  0
 24 29  2  0  0  0  0
 24 30  1  0  0  0  0
 25 26  2  0  0  0  0
 25 33  1  0  0  0  0
 26 32  1  0  0  0  0
  2 34  1  0  0  0  0
  4 35  1  0  0  0  0
  7 36  1  0  0  0  0
 10 37  1  0  0  0  0
 10 38  1  0  0  0  0
 10 39  1  0  0  0  0
 11 40  1  0  0  0  0
 11 41  1  0  0  0  0
 11 42  1  0  0  0  0
 12 43  1  0  0  0  0
 12 44  1  0  0  0  0
 12 45  1  0  0  0  0
 13 46  1  0  0  0  0
 13 47  1  0  0  0  0
 14 48  1  0  0  0  0
 16 49  1  0  0  0  0
 17 50  1  0  0  0  0
 17 51  1  0  0  0  0
 18 52  1  0  0  0  0
 19 53  1  0  0  0  0
 20 54  1  0  0  0  0
 21 55  1  0  0  0  0
 22 56  1  0  0  0  0
 23 57  1  0  0  0  0
 24 58  1  0  0  0  0
 25 59  1  0  0  0  0
 27 60  1  0  0  0  0
M  END
$$$$
