BYP_A_299
          05071912473D 1   1.00000     0.00000     0
            
 53 55  0  0  0  0            999 V2000
   -1.5751   31.3528    8.6315 Br  0  0  0  0  0  0  0  0  0  0  0  0
    5.8466   21.2116    9.7549 O   0  0  0  0  0  0  0  0  0  0  0  0
    5.4088   23.1086    7.3717 O   0  0  0  0  0  0  0  0  0  0  0  0
    2.0112   30.3776    6.6853 N   0  0  0  0  0  0  0  0  0  0  0  0
    1.3447   28.4686    7.9266 N   0  0  0  0  0  0  0  0  0  0  0  0
    3.3498   28.4138    6.6164 N   0  0  0  0  0  0  0  0  0  0  0  0
   -0.6628   28.3955    9.2900 N   0  0  0  0  0  0  0  0  0  0  0  0
    7.1477   19.2276    7.5342 N   0  0  0  0  0  0  0  0  0  0  0  0
    7.9860   18.9411    8.7333 C   0  0  0  0  0  0  0  0  0  0  0  0
    6.2569   18.0986    7.1378 C   0  0  0  0  0  0  0  0  0  0  0  0
    4.4963   22.0984    7.9412 C   0  0  0  0  0  0  0  0  0  0  0  0
    0.9145   31.0434    7.1246 C   0  0  0  0  0  0  0  0  0  0  0  0
    6.5336   20.6087    7.4818 C   0  0  0  0  0  0  0  0  0  0  0  0
   -0.8817   24.5488   11.2230 C   0  0  0  0  0  0  0  0  0  0  0  0
   -1.3601   25.7180   11.8664 C   0  0  0  0  0  0  0  0  0  0  0  0
   -0.3203   24.6276    9.9219 C   0  0  0  0  0  0  0  0  0  0  0  0
   -1.2778   26.9750   11.2075 C   0  0  0  0  0  0  0  0  0  0  0  0
   -0.2369   25.8834    9.2601 C   0  0  0  0  0  0  0  0  0  0  0  0
    5.3600   25.2260    6.1159 C   0  0  0  0  0  0  0  0  0  0  0  0
    3.9020   24.9500    8.0952 C   0  0  0  0  0  0  0  0  0  0  0  0
    4.8593   26.5414    5.9233 C   0  0  0  0  0  0  0  0  0  0  0  0
    3.4072   26.2581    7.9011 C   0  0  0  0  0  0  0  0  0  0  0  0
    2.1753   29.1112    7.1026 C   0  0  0  0  0  0  0  0  0  0  0  0
   -0.0279   30.4201    8.0077 C   0  0  0  0  0  0  0  0  0  0  0  0
    5.3396   20.8957    8.4617 C   0  0  1  0  0  0  0  0  0  0  0  0
    0.2504   29.0790    8.3853 C   0  0  0  0  0  0  0  0  0  0  0  0
    4.8828   24.4179    7.2055 C   0  0  0  0  0  0  0  0  0  0  0  0
   -0.7184   27.0725    9.8986 C   0  0  0  0  0  0  0  0  0  0  0  0
    3.8833   27.0632    6.8107 C   0  0  0  0  0  0  0  0  0  0  0  0
    6.3894   20.4445   10.0967 H   0  0  0  0  0  0  0  0  0  0  0  0
    3.9198   28.9772    6.0184 H   0  0  0  0  0  0  0  0  0  0  0  0
   -1.4359   28.9708    9.5574 H   0  0  0  0  0  0  0  0  0  0  0  0
    8.5548   19.7371    8.9403 H   0  0  0  0  0  0  0  0  0  0  0  0
    7.3939   18.7422    9.5142 H   0  0  0  0  0  0  0  0  0  0  0  0
    8.5717   18.1516    8.5495 H   0  0  0  0  0  0  0  0  0  0  0  0
    5.7270   18.3596    6.3310 H   0  0  0  0  0  0  0  0  0  0  0  0
    6.8123   17.2944    6.9261 H   0  0  0  0  0  0  0  0  0  0  0  0
    5.6344   17.8850    7.8907 H   0  0  0  0  0  0  0  0  0  0  0  0
    3.8615   21.7834    7.2358 H   0  0  0  0  0  0  0  0  0  0  0  0
    3.9809   22.5000    8.6983 H   0  0  0  0  0  0  0  0  0  0  0  0
    0.7602   31.9856    6.8274 H   0  0  0  0  0  0  0  0  0  0  0  0
    6.2015   20.7561    6.5502 H   0  0  0  0  0  0  0  0  0  0  0  0
    7.2568   21.2684    7.6862 H   0  0  0  0  0  0  0  0  0  0  0  0
   -0.9400   23.6653   11.6876 H   0  0  0  0  0  0  0  0  0  0  0  0
   -1.7552   25.6586   12.7832 H   0  0  0  0  0  0  0  0  0  0  0  0
    0.0163   23.8009    9.4711 H   0  0  0  0  0  0  0  0  0  0  0  0
   -1.6147   27.7977   11.6652 H   0  0  0  0  0  0  0  0  0  0  0  0
    0.1600   25.9370    8.3438 H   0  0  0  0  0  0  0  0  0  0  0  0
    6.0485   24.8598    5.4900 H   0  0  0  0  0  0  0  0  0  0  0  0
    3.5651   24.3961    8.8566 H   0  0  0  0  0  0  0  0  0  0  0  0
    5.1943   27.0986    5.1635 H   0  0  0  0  0  0  0  0  0  0  0  0
    2.7202   26.6268    8.5273 H   0  0  0  0  0  0  0  0  0  0  0  0
    4.7580   20.0845    8.5224 H   0  0  0  0  0  0  0  0  0  0  0  0
  1 24  1  0  0  0  0
  2 25  1  0  0  0  0
  3 11  1  0  0  0  0
  3 27  1  0  0  0  0
  4 12  2  0  0  0  0
  4 23  1  0  0  0  0
  5 23  2  0  0  0  0
  5 26  1  0  0  0  0
  6 23  1  0  0  0  0
  6 29  1  0  0  0  0
  7 26  1  0  0  0  0
  7 28  1  0  0  0  0
  8  9  1  0  0  0  0
  8 10  1  0  0  0  0
  8 13  1  0  0  0  0
 11 25  1  0  0  0  0
 12 24  1  0  0  0  0
 13 25  1  0  0  0  0
 14 15  2  0  0  0  0
 14 16  1  0  0  0  0
 15 17  1  0  0  0  0
 16 18  2  0  0  0  0
 17 28  2  0  0  0  0
 18 28  1  0  0  0  0
 19 21  1  0  0  0  0
 19 27  2  0  0  0  0
 20 22  2  0  0  0  0
 20 27  1  0  0  0  0
 21 29  2  0  0  0  0
 22 29  1  0  0  0  0
 24 26  2  0  0  0  0
  2 30  1  0  0  0  0
  6 31  1  0  0  0  0
  7 32  1  0  0  0  0
  9 33  1  0  0  0  0
  9 34  1  0  0  0  0
  9 35  1  0  0  0  0
 10 36  1  0  0  0  0
 10 37  1  0  0  0  0
 10 38  1  0  0  0  0
 11 39  1  0  0  0  0
 11 40  1  0  0  0  0
 12 41  1  0  0  0  0
 13 42  1  0  0  0  0
 13 43  1  0  0  0  0
 14 44  1  0  0  0  0
 15 45  1  0  0  0  0
 16 46  1  0  0  0  0
 17 47  1  0  0  0  0
 18 48  1  0  0  0  0
 19 49  1  0  0  0  0
 20 50  1  0  0  0  0
 21 51  1  0  0  0  0
 22 52  1  0  0  0  0
 25 53  1  0  0  0  0
M  END
$$$$
