UN4_A_1299
          05071912473D 1   1.00000     0.00000     0
            
 30 32  0  0  0  0            999 V2000
    1.6450   21.8716   10.4245 O   0  0  0  0  0  0  0  0  0  0  0  0
    0.2464   27.0215    8.7220 O   0  0  0  0  0  0  0  0  0  0  0  0
    3.5276   28.5543    5.7102 N   0  0  0  0  0  0  0  0  0  0  0  0
    0.1930   31.3629    7.4525 N   0  0  0  0  0  0  0  0  0  0  0  0
   -0.7435   29.7883    8.6910 N   0  0  0  0  0  0  0  0  0  0  0  0
    1.8857   27.7464    7.2161 N   0  0  0  0  0  0  0  0  0  0  0  0
    1.8944   24.1982   10.3780 N   0  0  0  0  0  0  0  0  0  0  0  0
    1.9515   29.9719    6.4714 N   0  0  0  0  0  0  0  0  0  0  0  0
    1.3595   26.1985    9.1418 C   0  0  0  0  0  0  0  0  0  0  0  0
   -0.7908   31.0406    8.3139 C   0  0  0  0  0  0  0  0  0  0  0  0
   -0.2903   23.2385   10.3375 C   0  0  0  0  0  0  0  0  0  0  0  0
   -0.4414   24.7098   10.0480 C   0  0  0  0  0  0  0  0  0  0  0  0
    1.2019   23.0114   10.3836 C   0  0  0  0  0  0  0  0  0  0  0  0
    2.4468   28.7470    6.4794 C   0  0  0  0  0  0  0  0  0  0  0  0
    0.8030   27.9652    7.9562 C   0  0  0  0  0  0  0  0  0  0  0  0
    0.9000   30.2851    7.2002 C   0  0  0  0  0  0  0  0  0  0  0  0
    0.9533   25.3197   10.3081 C   0  0  1  0  0  0  0  0  0  0  0  0
    0.2906   29.3054    8.0128 C   0  0  0  0  0  0  0  0  0  0  0  0
    3.9093   29.3146    5.1846 H   0  0  0  0  0  0  0  0  0  0  0  0
    3.9522   27.6502    5.6620 H   0  0  0  0  0  0  0  0  0  0  0  0
   -1.3417   29.3106    9.3344 H   0  0  0  0  0  0  0  0  0  0  0  0
    2.8900   24.2838   10.4159 H   0  0  0  0  0  0  0  0  0  0  0  0
    2.1182   26.7871    9.4209 H   0  0  0  0  0  0  0  0  0  0  0  0
    1.6490   25.6208    8.3786 H   0  0  0  0  0  0  0  0  0  0  0  0
   -1.4832   31.6886    8.6312 H   0  0  0  0  0  0  0  0  0  0  0  0
   -0.7086   22.6912    9.6125 H   0  0  0  0  0  0  0  0  0  0  0  0
   -0.7102   23.0062   11.2148 H   0  0  0  0  0  0  0  0  0  0  0  0
   -1.1217   25.1187   10.6563 H   0  0  0  0  0  0  0  0  0  0  0  0
   -0.7151   24.8537    9.0971 H   0  0  0  0  0  0  0  0  0  0  0  0
    0.9586   25.8400   11.1621 H   0  0  0  0  0  0  0  0  0  0  0  0
  1 13  2  0  0  0  0
  2  9  1  0  0  0  0
  2 15  1  0  0  0  0
  3 14  1  0  0  0  0
  4 10  2  0  0  0  0
  4 16  1  0  0  0  0
  5 10  1  0  0  0  0
  5 18  1  0  0  0  0
  6 14  2  0  0  0  0
  6 15  1  0  0  0  0
  7 13  1  0  0  0  0
  7 17  1  0  0  0  0
  8 14  1  0  0  0  0
  8 16  2  0  0  0  0
  9 17  1  0  0  0  0
 11 12  1  0  0  0  0
 11 13  1  0  0  0  0
 12 17  1  0  0  0  0
 15 18  2  0  0  0  0
 16 18  1  0  0  0  0
  3 19  1  0  0  0  0
  3 20  1  0  0  0  0
  5 21  1  0  0  0  0
  7 22  1  0  0  0  0
  9 23  1  0  0  0  0
  9 24  1  0  0  0  0
 10 25  1  0  0  0  0
 11 26  1  0  0  0  0
 11 27  1  0  0  0  0
 12 28  1  0  0  0  0
 12 29  1  0  0  0  0
 17 30  1  0  0  0  0
M  END
$$$$
