4SP_C_1298
          05071912473D 1   1.00000     0.00000     0
            
 50 53  0  0  0  0            999 V2000
    6.4901   23.7755    7.3644 S   0  0  0  0  0  0  0  0  0  0  0  0
    7.3340   24.1717    8.4892 O   0  0  0  0  0  0  0  0  0  0  0  0
    6.9963   23.3349    6.0609 O   0  0  0  0  0  0  0  0  0  0  0  0
   -0.4950   27.5187    8.8494 O   0  0  0  0  0  0  0  0  0  0  0  0
    5.4775   22.7217    8.0582 N   0  0  0  0  0  0  0  0  0  0  0  0
   -0.3388   31.8803    7.4338 N   0  0  0  0  0  0  0  0  0  0  0  0
   -1.4716   30.5388    8.6325 N   0  0  0  0  0  0  0  0  0  0  0  0
    1.1528   28.1623    7.3916 N   0  0  0  0  0  0  0  0  0  0  0  0
    2.9852   28.6537    6.0595 N   0  0  0  0  0  0  0  0  0  0  0  0
    1.4306   30.3493    6.5437 N   0  0  0  0  0  0  0  0  0  0  0  0
    0.1359   26.2077    8.8487 C   0  0  0  0  0  0  0  0  0  0  0  0
   -1.3757   31.7679    8.2316 C   0  0  0  0  0  0  0  0  0  0  0  0
   -0.2832   22.8848   11.4630 C   0  0  0  0  0  0  0  0  0  0  0  0
   -0.6807   22.6584   10.0484 C   0  0  0  0  0  0  0  0  0  0  0  0
   -0.9053   24.1370   12.0270 C   0  0  0  0  0  0  0  0  0  0  0  0
    4.6237   25.8232    7.9435 C   0  0  0  0  0  0  0  0  0  0  0  0
    5.3725   25.7844    5.7222 C   0  0  0  0  0  0  0  0  0  0  0  0
   -0.1671   23.7695    9.1446 C   0  0  0  0  0  0  0  0  0  0  0  0
   -0.4272   25.3783   11.1930 C   0  0  0  0  0  0  0  0  0  0  0  0
    3.8200   26.9421    7.6407 C   0  0  0  0  0  0  0  0  0  0  0  0
    4.5936   26.9194    5.4376 C   0  0  0  0  0  0  0  0  0  0  0  0
    5.4455   25.2152    6.9826 C   0  0  0  0  0  0  0  0  0  0  0  0
    0.1323   28.4247    8.1289 C   0  0  0  0  0  0  0  0  0  0  0  0
    1.8895   29.1278    6.6124 C   0  0  0  0  0  0  0  0  0  0  0  0
    3.7602   27.5560    6.3839 C   0  0  0  0  0  0  0  0  0  0  0  0
    0.2530   30.7131    7.3068 C   0  0  0  0  0  0  0  0  0  0  0  0
   -0.6608   25.1503    9.6791 C   0  0  0  0  0  0  0  0  0  0  0  0
   -0.3909   29.7898    8.0451 C   0  0  0  0  0  0  0  0  0  0  0  0
    4.8376   22.3738    7.3730 H   0  0  0  0  0  0  0  0  0  0  0  0
    6.0002   21.9608    8.4428 H   0  0  0  0  0  0  0  0  0  0  0  0
   -0.0436   32.7263    6.9897 H   0  0  0  0  0  0  0  0  0  0  0  0
    3.3126   29.1756    5.2718 H   0  0  0  0  0  0  0  0  0  0  0  0
    1.0529   26.2944    9.2381 H   0  0  0  0  0  0  0  0  0  0  0  0
    0.2038   25.8865    7.9041 H   0  0  0  0  0  0  0  0  0  0  0  0
   -1.9928   32.5115    8.4888 H   0  0  0  0  0  0  0  0  0  0  0  0
    0.7122   22.9686   11.5099 H   0  0  0  0  0  0  0  0  0  0  0  0
   -0.5780   22.1020   12.0111 H   0  0  0  0  0  0  0  0  0  0  0  0
   -1.6786   22.6275    9.9915 H   0  0  0  0  0  0  0  0  0  0  0  0
   -0.3020   21.7860    9.7393 H   0  0  0  0  0  0  0  0  0  0  0  0
   -0.6256   24.2481   12.9806 H   0  0  0  0  0  0  0  0  0  0  0  0
   -1.9015   24.0658   11.9779 H   0  0  0  0  0  0  0  0  0  0  0  0
    4.6073   25.4518    8.8718 H   0  0  0  0  0  0  0  0  0  0  0  0
    5.8982   25.3686    4.9801 H   0  0  0  0  0  0  0  0  0  0  0  0
   -0.5119   23.6295    8.2164 H   0  0  0  0  0  0  0  0  0  0  0  0
    0.8327   23.7548    9.1346 H   0  0  0  0  0  0  0  0  0  0  0  0
    0.5484   25.5257   11.3552 H   0  0  0  0  0  0  0  0  0  0  0  0
   -0.9394   26.1860   11.4852 H   0  0  0  0  0  0  0  0  0  0  0  0
    3.2549   27.3224    8.3729 H   0  0  0  0  0  0  0  0  0  0  0  0
    4.6318   27.2976    4.5127 H   0  0  0  0  0  0  0  0  0  0  0  0
   -1.6361   25.2473    9.4810 H   0  0  0  0  0  0  0  0  0  0  0  0
  1  2  2  0  0  0  0
  1  3  2  0  0  0  0
  1  5  1  0  0  0  0
  1 22  1  0  0  0  0
  4 11  1  0  0  0  0
  4 23  1  0  0  0  0
  6 12  1  0  0  0  0
  6 26  1  0  0  0  0
  7 12  2  0  0  0  0
  7 28  1  0  0  0  0
  8 23  1  0  0  0  0
  8 24  2  0  0  0  0
  9 24  1  0  0  0  0
  9 25  1  0  0  0  0
 10 24  1  0  0  0  0
 10 26  2  0  0  0  0
 11 27  1  0  0  0  0
 13 14  1  0  0  0  0
 13 15  1  0  0  0  0
 14 18  1  0  0  0  0
 15 19  1  0  0  0  0
 16 20  1  0  0  0  0
 16 22  2  0  0  0  0
 17 21  2  0  0  0  0
 17 22  1  0  0  0  0
 18 27  1  0  0  0  0
 19 27  1  0  0  0  0
 20 25  2  0  0  0  0
 21 25  1  0  0  0  0
 23 28  2  0  0  0  0
 26 28  1  0  0  0  0
  5 29  1  0  0  0  0
  5 30  1  0  0  0  0
  6 31  1  0  0  0  0
  9 32  1  0  0  0  0
 11 33  1  0  0  0  0
 11 34  1  0  0  0  0
 12 35  1  0  0  0  0
 13 36  1  0  0  0  0
 13 37  1  0  0  0  0
 14 38  1  0  0  0  0
 14 39  1  0  0  0  0
 15 40  1  0  0  0  0
 15 41  1  0  0  0  0
 16 42  1  0  0  0  0
 17 43  1  0  0  0  0
 18 44  1  0  0  0  0
 18 45  1  0  0  0  0
 19 46  1  0  0  0  0
 19 47  1  0  0  0  0
 20 48  1  0  0  0  0
 21 49  1  0  0  0  0
 27 50  1  0  0  0  0
M  END
$$$$
