ATP_A_400
          05071912473D 1   1.00000     0.00000     0
            
 47 49  0  0  0  0            999 V2000
   -4.1834   24.1477   15.0377 P   0  0  0  0  0  0  0  0  0  0  0  0
   -1.3952   23.3677   13.7298 P   0  0  0  0  0  0  0  0  0  0  0  0
   -2.7944   24.4550   11.3760 P   0  0  0  0  0  0  0  0  0  0  0  0
   -3.5765   25.6622   14.8837 O   0  0  0  0  0  0  0  0  0  0  0  0
   -5.0905   23.7389   13.8817 O   0  0  0  0  0  0  0  0  0  0  0  0
   -4.6723   23.9367   16.3014 O   0  0  0  0  0  0  0  0  0  0  0  0
   -0.2032   22.4505   14.0135 O   0  0  0  0  0  0  0  0  0  0  0  0
   -0.9455   24.8442   13.7450 O   0  0  0  0  0  0  0  0  0  0  0  0
   -2.8119   25.7205   12.0553 O   0  0  0  0  0  0  0  0  0  0  0  0
   -3.9918   23.8953   10.7254 O   0  0  0  0  0  0  0  0  0  0  0  0
    2.4471   25.9475   10.9268 O   0  0  0  0  0  0  0  0  0  0  0  0
    2.7012   23.8739    9.5904 O   0  0  0  0  0  0  0  0  0  0  0  0
   -2.8139   23.2066   14.7690 O   0  0  0  0  0  0  0  0  0  0  0  0
   -2.0223   23.3653   12.1869 O   0  0  0  0  0  0  0  0  0  0  0  0
   -1.5249   24.6300   10.4538 O   0  0  0  0  0  0  0  0  0  0  0  0
    0.2624   24.6711    8.2664 O   0  0  0  0  0  0  0  0  0  0  0  0
   -0.0912   31.4715    7.3274 N   0  0  0  0  0  0  0  0  0  0  0  0
    1.5377   30.1708    6.3170 N   0  0  0  0  0  0  0  0  0  0  0  0
    1.9959   27.9108    6.6325 N   0  0  0  0  0  0  0  0  0  0  0  0
   -0.8208   28.7771    8.9776 N   0  0  0  0  0  0  0  0  0  0  0  0
    0.5267   26.9340    8.5569 N   0  0  0  0  0  0  0  0  0  0  0  0
   -1.0587   23.5146    9.7254 C   0  0  0  0  0  0  0  0  0  0  0  0
    2.2410   29.0895    6.1168 C   0  0  0  0  0  0  0  0  0  0  0  0
   -0.4859   27.5357    9.3248 C   0  0  0  0  0  0  0  0  0  0  0  0
    1.2781   25.4132   10.3278 C   0  0  2  0  0  0  0  0  0  0  0  0
    1.4007   23.8856   10.2817 C   0  0  1  0  0  0  0  0  0  0  0  0
    1.1466   25.6761    8.7165 C   0  0  1  0  0  0  0  0  0  0  0  0
    0.5229   30.3342    7.2221 C   0  0  0  0  0  0  0  0  0  0  0  0
    0.2674   23.5990    9.2233 C   0  0  2  0  0  0  0  0  0  0  0  0
    1.0084   27.9570    7.6680 C   0  0  0  0  0  0  0  0  0  0  0  0
    0.2157   29.1504    7.9724 C   0  0  0  0  0  0  0  0  0  0  0  0
   -2.9931   25.8689   15.6692 H   0  0  0  0  0  0  0  0  0  0  0  0
   -5.4267   22.8096   14.0344 H   0  0  0  0  0  0  0  0  0  0  0  0
   -0.5056   21.4974   14.0013 H   0  0  0  0  0  0  0  0  0  0  0  0
   -1.9026   25.9136   12.4239 H   0  0  0  0  0  0  0  0  0  0  0  0
    2.3777   26.9445   10.9619 H   0  0  0  0  0  0  0  0  0  0  0  0
    2.9938   22.9285    9.4467 H   0  0  0  0  0  0  0  0  0  0  0  0
   -0.8310   31.5807    7.9913 H   0  0  0  0  0  0  0  0  0  0  0  0
    0.1749   32.2393    6.7446 H   0  0  0  0  0  0  0  0  0  0  0  0
   -1.6714   23.3821    8.9462 H   0  0  0  0  0  0  0  0  0  0  0  0
   -1.1065   22.7168   10.3264 H   0  0  0  0  0  0  0  0  0  0  0  0
    3.0371   29.1680    5.5167 H   0  0  0  0  0  0  0  0  0  0  0  0
   -0.9279   27.0603   10.0854 H   0  0  0  0  0  0  0  0  0  0  0  0
    0.4530   25.7001   10.8145 H   0  0  0  0  0  0  0  0  0  0  0  0
    1.3438   23.3978   11.1529 H   0  0  0  0  0  0  0  0  0  0  0  0
    2.0325   25.6321    8.2547 H   0  0  0  0  0  0  0  0  0  0  0  0
    0.4834   22.7467    8.7469 H   0  0  0  0  0  0  0  0  0  0  0  0
  1  4  1  0  0  0  0
  1  5  1  0  0  0  0
  1  6  2  0  0  0  0
  1 13  1  0  0  0  0
  2  7  1  0  0  0  0
  2  8  2  0  0  0  0
  2 13  1  0  0  0  0
  2 14  1  0  0  0  0
  3  9  1  0  0  0  0
  3 10  2  0  0  0  0
  3 14  1  0  0  0  0
  3 15  1  0  0  0  0
 11 25  1  0  0  0  0
 12 26  1  0  0  0  0
 15 22  1  0  0  0  0
 16 27  1  0  0  0  0
 16 29  1  0  0  0  0
 17 28  1  0  0  0  0
 18 23  1  0  0  0  0
 18 28  2  0  0  0  0
 19 23  2  0  0  0  0
 19 30  1  0  0  0  0
 20 24  2  0  0  0  0
 20 31  1  0  0  0  0
 21 24  1  0  0  0  0
 21 27  1  0  0  0  0
 21 30  1  0  0  0  0
 22 29  1  0  0  0  0
 25 26  1  0  0  0  0
 25 27  1  0  0  0  0
 26 29  1  0  0  0  0
 28 31  1  0  0  0  0
 30 31  2  0  0  0  0
  4 32  1  0  0  0  0
  5 33  1  0  0  0  0
  7 34  1  0  0  0  0
  9 35  1  0  0  0  0
 11 36  1  0  0  0  0
 12 37  1  0  0  0  0
 17 38  1  0  0  0  0
 17 39  1  0  0  0  0
 22 40  1  0  0  0  0
 22 41  1  0  0  0  0
 23 42  1  0  0  0  0
 24 43  1  0  0  0  0
 25 44  1  0  0  0  0
 26 45  1  0  0  0  0
 27 46  1  0  0  0  0
 29 47  1  0  0  0  0
M  END
$$$$
