U55_A_400
          05071912473D 1   1.00000     0.00000     0
            
 29 30  0  0  0  0            999 V2000
    6.4736   23.9303    7.4176 S   0  0  0  0  0  0  0  0  0  0  0  0
    7.4238   24.4991    8.3191 O   0  0  0  0  0  0  0  0  0  0  0  0
    7.1776   23.5907    6.1409 O   0  0  0  0  0  0  0  0  0  0  0  0
    5.8662   22.5769    8.0060 N   0  0  0  0  0  0  0  0  0  0  0  0
   -0.8639   28.2489    9.1948 N   0  0  0  0  0  0  0  0  0  0  0  0
   -0.3218   30.2079    8.0214 N   0  0  0  0  0  0  0  0  0  0  0  0
    1.6248   30.3308    6.5924 N   0  0  0  0  0  0  0  0  0  0  0  0
    2.9479   28.4777    6.1967 N   0  0  0  0  0  0  0  0  0  0  0  0
    0.5789   30.8958    7.2141 C   0  0  0  0  0  0  0  0  0  0  0  0
    5.3670   25.7495    5.7333 C   0  0  0  0  0  0  0  0  0  0  0  0
    4.4770   25.6752    7.9977 C   0  0  0  0  0  0  0  0  0  0  0  0
    4.5972   26.9000    5.4807 C   0  0  0  0  0  0  0  0  0  0  0  0
    3.7292   26.8316    7.7494 C   0  0  0  0  0  0  0  0  0  0  0  0
    1.1272   28.2965    7.7672 C   0  0  0  0  0  0  0  0  0  0  0  0
    5.3001   25.1260    7.0064 C   0  0  0  0  0  0  0  0  0  0  0  0
   -0.0321   28.9121    8.3197 C   0  0  0  0  0  0  0  0  0  0  0  0
    1.9289   29.0052    6.8605 C   0  0  0  0  0  0  0  0  0  0  0  0
    3.7281   27.4265    6.4696 C   0  0  0  0  0  0  0  0  0  0  0  0
    5.2050   22.1988    7.3580 H   0  0  0  0  0  0  0  0  0  0  0  0
    6.6031   21.9172    8.1534 H   0  0  0  0  0  0  0  0  0  0  0  0
   -0.6793   27.2959    9.4352 H   0  0  0  0  0  0  0  0  0  0  0  0
   -1.6523   28.7205    9.5898 H   0  0  0  0  0  0  0  0  0  0  0  0
    3.1722   28.9477    5.3430 H   0  0  0  0  0  0  0  0  0  0  0  0
    0.4370   31.8777    7.0888 H   0  0  0  0  0  0  0  0  0  0  0  0
    5.9580   25.3734    5.0197 H   0  0  0  0  0  0  0  0  0  0  0  0
    4.4231   25.2354    8.8942 H   0  0  0  0  0  0  0  0  0  0  0  0
    4.6641   27.3525    4.5915 H   0  0  0  0  0  0  0  0  0  0  0  0
    3.1903   27.2404    8.4859 H   0  0  0  0  0  0  0  0  0  0  0  0
    1.3690   27.3610    8.0250 H   0  0  0  0  0  0  0  0  0  0  0  0
  1  2  2  0  0  0  0
  1  3  2  0  0  0  0
  1  4  1  0  0  0  0
  1 15  1  0  0  0  0
  5 16  1  0  0  0  0
  6  9  1  0  0  0  0
  6 16  2  0  0  0  0
  7  9  2  0  0  0  0
  7 17  1  0  0  0  0
  8 17  1  0  0  0  0
  8 18  1  0  0  0  0
 10 12  1  0  0  0  0
 10 15  2  0  0  0  0
 11 13  2  0  0  0  0
 11 15  1  0  0  0  0
 12 18  2  0  0  0  0
 13 18  1  0  0  0  0
 14 16  1  0  0  0  0
 14 17  2  0  0  0  0
  4 19  1  0  0  0  0
  4 20  1  0  0  0  0
  5 21  1  0  0  0  0
  5 22  1  0  0  0  0
  8 23  1  0  0  0  0
  9 24  1  0  0  0  0
 10 25  1  0  0  0  0
 11 26  1  0  0  0  0
 12 27  1  0  0  0  0
 13 28  1  0  0  0  0
 14 29  1  0  0  0  0
M  END
$$$$
