LIG_P_301
          05071912473D 1   1.00000     0.00000     0
            
 29 32  0  0  0  0            999 V2000
    5.0658   26.7199    6.3950 N   0  0  0  0  0  0  0  0  0  0  0  0
    1.8117   30.7476    6.5958 N   0  0  0  0  0  0  0  0  0  0  0  0
    0.6354   31.2378    7.1185 N   0  0  0  0  0  0  0  0  0  0  0  0
    4.0557   26.3833    7.2334 C   0  0  0  0  0  0  0  0  0  0  0  0
    5.0850   27.9270    5.7865 C   0  0  0  0  0  0  0  0  0  0  0  0
   -3.1426   29.4923   10.2983 C   0  0  0  0  0  0  0  0  0  0  0  0
   -3.1495   30.7858    9.7262 C   0  0  0  0  0  0  0  0  0  0  0  0
    3.0073   27.2742    7.4810 C   0  0  0  0  0  0  0  0  0  0  0  0
    4.0588   28.8506    6.0037 C   0  0  0  0  0  0  0  0  0  0  0  0
   -2.0968   28.5844   10.0376 C   0  0  0  0  0  0  0  0  0  0  0  0
   -2.1087   31.1992    8.8765 C   0  0  0  0  0  0  0  0  0  0  0  0
    0.2360   28.1706    8.7457 C   0  0  0  0  0  0  0  0  0  0  0  0
    3.0082   28.5213    6.8586 C   0  0  0  0  0  0  0  0  0  0  0  0
   -1.0693   29.0068    9.1973 C   0  0  0  0  0  0  0  0  0  0  0  0
    1.8919   29.5085    7.1111 C   0  0  0  0  0  0  0  0  0  0  0  0
    0.1281   30.3554    7.8349 C   0  0  0  0  0  0  0  0  0  0  0  0
   -1.0941   30.2765    8.6488 C   0  0  0  0  0  0  0  0  0  0  0  0
    0.8190   29.2958    7.8753 C   0  0  0  0  0  0  0  0  0  0  0  0
    2.4533   31.2046    5.9797 H   0  0  0  0  0  0  0  0  0  0  0  0
    4.0604   25.4884    7.6796 H   0  0  0  0  0  0  0  0  0  0  0  0
    5.8408   28.1613    5.1750 H   0  0  0  0  0  0  0  0  0  0  0  0
   -3.8936   29.2171   10.8985 H   0  0  0  0  0  0  0  0  0  0  0  0
   -3.9021   31.4125    9.9283 H   0  0  0  0  0  0  0  0  0  0  0  0
    2.2636   27.0191    8.0990 H   0  0  0  0  0  0  0  0  0  0  0  0
    4.0781   29.7412    5.5492 H   0  0  0  0  0  0  0  0  0  0  0  0
   -2.0924   27.6696   10.4415 H   0  0  0  0  0  0  0  0  0  0  0  0
   -2.0987   32.1076    8.4585 H   0  0  0  0  0  0  0  0  0  0  0  0
    0.0113   27.3488    8.2221 H   0  0  0  0  0  0  0  0  0  0  0  0
    0.8274   27.9251    9.5138 H   0  0  0  0  0  0  0  0  0  0  0  0
  1  4  2  0  0  0  0
  1  5  1  0  0  0  0
  2  3  1  0  0  0  0
  2 15  1  0  0  0  0
  3 16  2  0  0  0  0
  4  8  1  0  0  0  0
  5  9  2  0  0  0  0
  6  7  2  0  0  0  0
  6 10  1  0  0  0  0
  7 11  1  0  0  0  0
  8 13  2  0  0  0  0
  9 13  1  0  0  0  0
 10 14  2  0  0  0  0
 11 17  2  0  0  0  0
 12 14  1  0  0  0  0
 12 18  1  0  0  0  0
 13 15  1  0  0  0  0
 14 17  1  0  0  0  0
 15 18  2  0  0  0  0
 16 17  1  0  0  0  0
 16 18  1  0  0  0  0
  2 19  1  0  0  0  0
  4 20  1  0  0  0  0
  5 21  1  0  0  0  0
  6 22  1  0  0  0  0
  7 23  1  0  0  0  0
  8 24  1  0  0  0  0
  9 25  1  0  0  0  0
 10 26  1  0  0  0  0
 11 27  1  0  0  0  0
 12 28  1  0  0  0  0
 12 29  1  0  0  0  0
M  END
$$$$
