LS2_A_299
          05071912473D 1   1.00000     0.00000     0
            
 42 45  0  0  0  0            999 V2000
   -0.6269   26.9601    9.8856 S   0  0  0  0  0  0  0  0  0  0  0  0
    7.3745   22.8856    7.4844 S   0  0  0  0  0  0  0  0  0  0  0  0
    7.9820   24.1562    7.7957 O   0  0  0  0  0  0  0  0  0  0  0  0
    8.2243   21.8063    7.0519 O   0  0  0  0  0  0  0  0  0  0  0  0
    2.1399   30.6007    6.1349 O   0  0  0  0  0  0  0  0  0  0  0  0
    6.7061   22.3331    8.8862 N   0  0  0  0  0  0  0  0  0  0  0  0
    2.9931   27.9725    7.2144 N   0  0  0  0  0  0  0  0  0  0  0  0
    1.7844   27.9864    7.5403 N   0  0  0  0  0  0  0  0  0  0  0  0
   -2.7919   28.0545   10.7480 N   0  0  0  0  0  0  0  0  0  0  0  0
    0.2401   31.3655    7.2850 N   0  0  0  0  0  0  0  0  0  0  0  0
    5.8759   21.1420    8.9435 C   0  0  0  0  0  0  0  0  0  0  0  0
   -2.0676   26.9044   10.8038 C   0  0  0  0  0  0  0  0  0  0  0  0
    6.0720   23.1387    6.2752 C   0  0  0  0  0  0  0  0  0  0  0  0
    4.5832   26.7644    5.8305 C   0  0  0  0  0  0  0  0  0  0  0  0
    3.7200   25.6985    8.0175 C   0  0  0  0  0  0  0  0  0  0  0  0
   -2.6694   30.4364    9.6880 C   0  0  0  0  0  0  0  0  0  0  0  0
   -1.8661   31.3153    8.7875 C   0  0  0  0  0  0  0  0  0  0  0  0
    5.2991   25.5082    5.5229 C   0  0  0  0  0  0  0  0  0  0  0  0
    4.3605   24.4378    7.6644 C   0  0  0  0  0  0  0  0  0  0  0  0
   -0.9456   28.5426    9.3550 C   0  0  0  0  0  0  0  0  0  0  0  0
    1.2011   30.4631    6.9208 C   0  0  0  0  0  0  0  0  0  0  0  0
    3.7480   26.8522    7.0524 C   0  0  0  0  0  0  0  0  0  0  0  0
   -2.2219   29.0693    9.9718 C   0  0  0  0  0  0  0  0  0  0  0  0
   -0.6408   30.7777    8.1510 C   0  0  0  0  0  0  0  0  0  0  0  0
    0.9734   29.1827    7.6511 C   0  0  0  0  0  0  0  0  0  0  0  0
    5.2118   24.3563    6.4583 C   0  0  0  0  0  0  0  0  0  0  0  0
   -0.2095   29.4159    8.4377 C   0  0  0  0  0  0  0  0  0  0  0  0
    6.1425   23.0807    9.2377 H   0  0  0  0  0  0  0  0  0  0  0  0
    3.4389   28.8544    7.0610 H   0  0  0  0  0  0  0  0  0  0  0  0
    0.1890   32.3120    6.9663 H   0  0  0  0  0  0  0  0  0  0  0  0
    5.5768   20.9892    9.8854 H   0  0  0  0  0  0  0  0  0  0  0  0
    5.0763   21.2645    8.3556 H   0  0  0  0  0  0  0  0  0  0  0  0
    6.4032   20.3527    8.6289 H   0  0  0  0  0  0  0  0  0  0  0  0
   -2.3508   26.1034   11.3312 H   0  0  0  0  0  0  0  0  0  0  0  0
    5.4737   22.3378    6.3015 H   0  0  0  0  0  0  0  0  0  0  0  0
    6.5023   23.2038    5.3748 H   0  0  0  0  0  0  0  0  0  0  0  0
    4.6618   27.5507    5.2178 H   0  0  0  0  0  0  0  0  0  0  0  0
    3.2621   25.7966    8.9011 H   0  0  0  0  0  0  0  0  0  0  0  0
   -3.5139   30.7806   10.0983 H   0  0  0  0  0  0  0  0  0  0  0  0
   -2.1522   32.2579    8.6155 H   0  0  0  0  0  0  0  0  0  0  0  0
    5.8417   25.4335    4.6862 H   0  0  0  0  0  0  0  0  0  0  0  0
    4.2243   23.6293    8.2368 H   0  0  0  0  0  0  0  0  0  0  0  0
  1 12  1  0  0  0  0
  1 20  1  0  0  0  0
  2  3  2  0  0  0  0
  2  4  2  0  0  0  0
  2  6  1  0  0  0  0
  2 13  1  0  0  0  0
  5 21  2  0  0  0  0
  6 11  1  0  0  0  0
  7  8  1  0  0  0  0
  7 22  1  0  0  0  0
  8 25  2  0  0  0  0
  9 12  2  0  0  0  0
  9 23  1  0  0  0  0
 10 21  1  0  0  0  0
 10 24  1  0  0  0  0
 13 26  1  0  0  0  0
 14 18  2  0  0  0  0
 14 22  1  0  0  0  0
 15 19  1  0  0  0  0
 15 22  2  0  0  0  0
 16 17  1  0  0  0  0
 16 23  2  0  0  0  0
 17 24  2  0  0  0  0
 18 26  1  0  0  0  0
 19 26  2  0  0  0  0
 20 23  1  0  0  0  0
 20 27  2  0  0  0  0
 21 25  1  0  0  0  0
 24 27  1  0  0  0  0
 25 27  1  0  0  0  0
  6 28  1  0  0  0  0
  7 29  1  0  0  0  0
 10 30  1  0  0  0  0
 11 31  1  0  0  0  0
 11 32  1  0  0  0  0
 11 33  1  0  0  0  0
 12 34  1  0  0  0  0
 13 35  1  0  0  0  0
 13 36  1  0  0  0  0
 14 37  1  0  0  0  0
 15 38  1  0  0  0  0
 16 39  1  0  0  0  0
 17 40  1  0  0  0  0
 18 41  1  0  0  0  0
 19 42  1  0  0  0  0
M  END
$$$$
