LS3_A_299
          05071912473D 1   1.00000     0.00000     0
            
 43 47  0  0  0  0            999 V2000
    6.9606   23.2346    7.8809 S   0  0  0  0  0  0  0  0  0  0  0  0
    6.9756   21.8274    8.1796 O   0  0  0  0  0  0  0  0  0  0  0  0
    7.9961   24.0983    8.3728 O   0  0  0  0  0  0  0  0  0  0  0  0
    1.9500   31.1528    6.2433 O   0  0  0  0  0  0  0  0  0  0  0  0
   -3.7913   27.3106   11.1454 O   0  0  0  0  0  0  0  0  0  0  0  0
   -2.6763   25.6900   12.2438 N   0  0  0  0  0  0  0  0  0  0  0  0
    3.0857   28.1686    6.4084 N   0  0  0  0  0  0  0  0  0  0  0  0
   -0.0571   31.4049    7.3809 N   0  0  0  0  0  0  0  0  0  0  0  0
    6.6494   23.5876    6.1319 C   0  0  0  0  0  0  0  0  0  0  0  0
    5.4096   23.9910    8.3400 C   0  0  0  0  0  0  0  0  0  0  0  0
   -3.8884   26.1341   11.8436 C   0  0  0  0  0  0  0  0  0  0  0  0
   -1.7493   26.4921   11.6767 C   0  0  0  0  0  0  0  0  0  0  0  0
    1.7776   28.2472    7.0960 C   0  0  0  0  0  0  0  0  0  0  0  0
    4.4983   26.7412    5.0058 C   0  0  0  0  0  0  0  0  0  0  0  0
   -2.0773   30.8806    8.9290 C   0  0  0  0  0  0  0  0  0  0  0  0
    5.3858   25.5655    4.8357 C   0  0  0  0  0  0  0  0  0  0  0  0
   -2.6420   29.8097    9.8055 C   0  0  0  0  0  0  0  0  0  0  0  0
    4.1835   26.1574    7.4963 C   0  0  0  0  0  0  0  0  0  0  0  0
   -0.6528   28.2930    9.2513 C   0  0  0  0  0  0  0  0  0  0  0  0
    1.0432   30.7108    6.9316 C   0  0  0  0  0  0  0  0  0  0  0  0
   -2.4502   27.4849   10.9144 C   0  0  0  0  0  0  0  0  0  0  0  0
    3.8872   27.0531    6.3298 C   0  0  0  0  0  0  0  0  0  0  0  0
   -0.8131   30.6088    8.1999 C   0  0  0  0  0  0  0  0  0  0  0  0
    5.6858   24.7225    6.0173 C   0  0  0  0  0  0  0  0  0  0  0  0
    5.0430   24.9885    7.3112 C   0  0  0  0  0  0  0  0  0  0  0  0
   -1.9164   28.5076   10.0250 C   0  0  0  0  0  0  0  0  0  0  0  0
    0.9920   29.2998    7.4239 C   0  0  0  0  0  0  0  0  0  0  0  0
   -0.1481   29.3223    8.3167 C   0  0  0  0  0  0  0  0  0  0  0  0
    3.4163   28.9998    5.9615 H   0  0  0  0  0  0  0  0  0  0  0  0
   -0.2730   32.3522    7.1441 H   0  0  0  0  0  0  0  0  0  0  0  0
    6.2636   22.7768    5.6917 H   0  0  0  0  0  0  0  0  0  0  0  0
    7.5088   23.8333    5.6834 H   0  0  0  0  0  0  0  0  0  0  0  0
    5.5055   24.4426    9.2271 H   0  0  0  0  0  0  0  0  0  0  0  0
    4.6982   23.2906    8.3978 H   0  0  0  0  0  0  0  0  0  0  0  0
   -4.7498   25.6629   12.0331 H   0  0  0  0  0  0  0  0  0  0  0  0
   -0.7572   26.4092   11.7709 H   0  0  0  0  0  0  0  0  0  0  0  0
    1.4057   27.3597    7.3683 H   0  0  0  0  0  0  0  0  0  0  0  0
    4.3070   27.3326    4.2224 H   0  0  0  0  0  0  0  0  0  0  0  0
   -2.5412   31.7616    8.8357 H   0  0  0  0  0  0  0  0  0  0  0  0
    5.7744   25.3456    3.9409 H   0  0  0  0  0  0  0  0  0  0  0  0
   -3.5215   29.9609   10.2566 H   0  0  0  0  0  0  0  0  0  0  0  0
    3.7954   26.3585    8.3957 H   0  0  0  0  0  0  0  0  0  0  0  0
   -0.1424   27.4410    9.3681 H   0  0  0  0  0  0  0  0  0  0  0  0
  1  2  2  0  0  0  0
  1  3  2  0  0  0  0
  1  9  1  0  0  0  0
  1 10  1  0  0  0  0
  4 20  2  0  0  0  0
  5 11  1  0  0  0  0
  5 21  1  0  0  0  0
  6 11  2  0  0  0  0
  6 12  1  0  0  0  0
  7 13  1  0  0  0  0
  7 22  1  0  0  0  0
  8 20  1  0  0  0  0
  8 23  1  0  0  0  0
  9 24  1  0  0  0  0
 10 25  1  0  0  0  0
 12 21  2  0  0  0  0
 13 27  2  0  0  0  0
 14 16  1  0  0  0  0
 14 22  2  0  0  0  0
 15 17  1  0  0  0  0
 15 23  2  0  0  0  0
 16 24  2  0  0  0  0
 17 26  2  0  0  0  0
 18 22  1  0  0  0  0
 18 25  2  0  0  0  0
 19 26  1  0  0  0  0
 19 28  2  0  0  0  0
 20 27  1  0  0  0  0
 21 26  1  0  0  0  0
 23 28  1  0  0  0  0
 24 25  1  0  0  0  0
 27 28  1  0  0  0  0
  7 29  1  0  0  0  0
  8 30  1  0  0  0  0
  9 31  1  0  0  0  0
  9 32  1  0  0  0  0
 10 33  1  0  0  0  0
 10 34  1  0  0  0  0
 11 35  1  0  0  0  0
 12 36  1  0  0  0  0
 13 37  1  0  0  0  0
 14 38  1  0  0  0  0
 15 39  1  0  0  0  0
 16 40  1  0  0  0  0
 17 41  1  0  0  0  0
 18 42  1  0  0  0  0
 19 43  1  0  0  0  0
M  END
$$$$
