LS5_A_299
          05071912473D 1   1.00000     0.00000     0
            
 40 42  0  0  0  0            999 V2000
    6.8411   23.7953    7.0388 S   0  0  0  0  0  0  0  0  0  0  0  0
    6.4511   22.5158    7.5726 O   0  0  0  0  0  0  0  0  0  0  0  0
    7.9471   24.5059    7.5638 O   0  0  0  0  0  0  0  0  0  0  0  0
    1.9050   30.5609    6.2472 O   0  0  0  0  0  0  0  0  0  0  0  0
    5.3625   21.8222    5.2633 N   0  0  0  0  0  0  0  0  0  0  0  0
    6.0484   22.9337    3.3795 N   0  0  0  0  0  0  0  0  0  0  0  0
    7.0721   23.5207    5.4342 N   0  0  0  0  0  0  0  0  0  0  0  0
    2.7163   28.0480    7.0297 N   0  0  0  0  0  0  0  0  0  0  0  0
    0.0491   31.3582    7.3858 N   0  0  0  0  0  0  0  0  0  0  0  0
    1.4530   28.0847    7.7952 C   0  0  0  0  0  0  0  0  0  0  0  0
   -2.8726   30.4985    9.5909 C   0  0  0  0  0  0  0  0  0  0  0  0
   -2.5403   29.1514    9.8220 C   0  0  0  0  0  0  0  0  0  0  0  0
    5.5423   25.9845    6.0481 C   0  0  0  0  0  0  0  0  0  0  0  0
    4.4999   24.9682    7.9876 C   0  0  0  0  0  0  0  0  0  0  0  0
   -2.0333   31.3284    8.8223 C   0  0  0  0  0  0  0  0  0  0  0  0
   -1.3366   28.6292    9.2839 C   0  0  0  0  0  0  0  0  0  0  0  0
    4.5596   26.9804    6.0523 C   0  0  0  0  0  0  0  0  0  0  0  0
    3.5384   25.9735    8.0039 C   0  0  0  0  0  0  0  0  0  0  0  0
    6.1595   22.7563    4.7041 C   0  0  0  0  0  0  0  0  0  0  0  0
    5.5206   24.9897    7.0344 C   0  0  0  0  0  0  0  0  0  0  0  0
    0.9803   30.4390    7.0387 C   0  0  0  0  0  0  0  0  0  0  0  0
    3.5771   27.0046    7.0483 C   0  0  0  0  0  0  0  0  0  0  0  0
   -0.8736   30.7894    8.2378 C   0  0  0  0  0  0  0  0  0  0  0  0
    0.6963   29.1969    7.7818 C   0  0  0  0  0  0  0  0  0  0  0  0
   -0.5343   29.4820    8.4847 C   0  0  0  0  0  0  0  0  0  0  0  0
    5.4068   21.6514    6.2476 H   0  0  0  0  0  0  0  0  0  0  0  0
    4.7275   21.3006    4.6935 H   0  0  0  0  0  0  0  0  0  0  0  0
    6.6168   23.6139    2.9167 H   0  0  0  0  0  0  0  0  0  0  0  0
    5.3972   22.3857    2.8546 H   0  0  0  0  0  0  0  0  0  0  0  0
    2.9484   28.8402    6.4653 H   0  0  0  0  0  0  0  0  0  0  0  0
    0.0329   32.3073    7.0714 H   0  0  0  0  0  0  0  0  0  0  0  0
    1.1615   27.2858    8.3213 H   0  0  0  0  0  0  0  0  0  0  0  0
   -3.7159   30.8719    9.9774 H   0  0  0  0  0  0  0  0  0  0  0  0
   -3.1473   28.5673   10.3608 H   0  0  0  0  0  0  0  0  0  0  0  0
    6.2547   25.9828    5.3464 H   0  0  0  0  0  0  0  0  0  0  0  0
    4.4601   24.2287    8.6596 H   0  0  0  0  0  0  0  0  0  0  0  0
   -2.2605   32.2937    8.6933 H   0  0  0  0  0  0  0  0  0  0  0  0
   -1.0612   27.6848    9.4634 H   0  0  0  0  0  0  0  0  0  0  0  0
    4.5594   27.6803    5.3380 H   0  0  0  0  0  0  0  0  0  0  0  0
    2.8178   25.9629    8.6971 H   0  0  0  0  0  0  0  0  0  0  0  0
  1  2  2  0  0  0  0
  1  3  2  0  0  0  0
  1  7  1  0  0  0  0
  1 20  1  0  0  0  0
  4 21  2  0  0  0  0
  5 19  1  0  0  0  0
  6 19  1  0  0  0  0
  7 19  2  0  0  0  0
  8 10  1  0  0  0  0
  8 22  1  0  0  0  0
  9 21  1  0  0  0  0
  9 23  1  0  0  0  0
 10 24  2  0  0  0  0
 11 12  2  0  0  0  0
 11 15  1  0  0  0  0
 12 16  1  0  0  0  0
 13 17  1  0  0  0  0
 13 20  2  0  0  0  0
 14 18  2  0  0  0  0
 14 20  1  0  0  0  0
 15 23  2  0  0  0  0
 16 25  2  0  0  0  0
 17 22  2  0  0  0  0
 18 22  1  0  0  0  0
 21 24  1  0  0  0  0
 23 25  1  0  0  0  0
 24 25  1  0  0  0  0
  5 26  1  0  0  0  0
  5 27  1  0  0  0  0
  6 28  1  0  0  0  0
  6 29  1  0  0  0  0
  8 30  1  0  0  0  0
  9 31  1  0  0  0  0
 10 32  1  0  0  0  0
 11 33  1  0  0  0  0
 12 34  1  0  0  0  0
 13 35  1  0  0  0  0
 14 36  1  0  0  0  0
 15 37  1  0  0  0  0
 16 38  1  0  0  0  0
 17 39  1  0  0  0  0
 18 40  1  0  0  0  0
M  END
$$$$
