HDU_A_1299
          05071912473D 1   1.00000     0.00000     0
            
 33 35  0  0  0  0            999 V2000
    2.7986   26.8961    7.9102 O   0  0  0  0  0  0  0  0  0  0  0  0
    1.6434   30.8240    6.8005 N   0  0  0  0  0  0  0  0  0  0  0  0
    3.1031   28.7773    6.6887 N   0  0  0  0  0  0  0  0  0  0  0  0
    0.9232   28.8046    7.9533 N   0  0  0  0  0  0  0  0  0  0  0  0
   -2.9952   28.2875   10.5097 N   0  0  0  0  0  0  0  0  0  0  0  0
   -0.9306   27.5105    9.9107 N   0  0  0  0  0  0  0  0  0  0  0  0
    4.7324   26.9742    6.5511 C   0  0  0  0  0  0  0  0  0  0  0  0
   -3.2607   30.4669    9.2867 C   0  0  0  0  0  0  0  0  0  0  0  0
    0.5406   31.4151    7.2504 C   0  0  0  0  0  0  0  0  0  0  0  0
    0.1005   26.6394    9.9304 C   0  0  0  0  0  0  0  0  0  0  0  0
    0.0616   25.4542   10.6858 C   0  0  0  0  0  0  0  0  0  0  0  0
   -1.0735   25.1654   11.4405 C   0  0  0  0  0  0  0  0  0  0  0  0
   -0.3374   30.7680    7.9964 C   0  0  0  0  0  0  0  0  0  0  0  0
   -2.1412   26.0747   11.4321 C   0  0  0  0  0  0  0  0  0  0  0  0
    1.9069   29.4555    7.1430 C   0  0  0  0  0  0  0  0  0  0  0  0
    3.4637   27.5561    7.1032 C   0  0  0  0  0  0  0  0  0  0  0  0
   -2.0741   27.2408   10.6726 C   0  0  0  0  0  0  0  0  0  0  0  0
   -2.5011   29.2311    9.6743 C   0  0  0  0  0  0  0  0  0  0  0  0
   -0.1615   29.4727    8.3448 C   0  0  0  0  0  0  0  0  0  0  0  0
   -1.1495   28.7701    9.2339 C   0  0  0  0  0  0  0  0  0  0  0  0
    3.6916   29.2462    6.0301 H   0  0  0  0  0  0  0  0  0  0  0  0
    5.1497   27.6256    5.9174 H   0  0  0  0  0  0  0  0  0  0  0  0
    5.3665   26.7856    7.3009 H   0  0  0  0  0  0  0  0  0  0  0  0
    4.5261   26.1238    6.0671 H   0  0  0  0  0  0  0  0  0  0  0  0
   -2.7050   31.0183    8.6645 H   0  0  0  0  0  0  0  0  0  0  0  0
   -4.1117   30.2059    8.8310 H   0  0  0  0  0  0  0  0  0  0  0  0
   -3.4713   30.9995   10.1064 H   0  0  0  0  0  0  0  0  0  0  0  0
    0.3715   32.3730    7.0185 H   0  0  0  0  0  0  0  0  0  0  0  0
    0.9174   26.8434    9.3909 H   0  0  0  0  0  0  0  0  0  0  0  0
    0.8395   24.8258   10.6814 H   0  0  0  0  0  0  0  0  0  0  0  0
   -1.1259   24.3243   11.9788 H   0  0  0  0  0  0  0  0  0  0  0  0
   -1.1550   31.2494    8.3123 H   0  0  0  0  0  0  0  0  0  0  0  0
   -2.9583   25.8843   11.9763 H   0  0  0  0  0  0  0  0  0  0  0  0
  1 16  2  0  0  0  0
  2  9  1  0  0  0  0
  2 15  2  0  0  0  0
  3 15  1  0  0  0  0
  3 16  1  0  0  0  0
  4 15  1  0  0  0  0
  4 19  2  0  0  0  0
  5 17  2  0  0  0  0
  5 18  1  0  0  0  0
  6 10  1  0  0  0  0
  6 17  1  0  0  0  0
  6 20  1  0  0  0  0
  7 16  1  0  0  0  0
  8 18  1  0  0  0  0
  9 13  2  0  0  0  0
 10 11  2  0  0  0  0
 11 12  1  0  0  0  0
 12 14  2  0  0  0  0
 13 19  1  0  0  0  0
 14 17  1  0  0  0  0
 18 20  2  0  0  0  0
 19 20  1  0  0  0  0
  3 21  1  0  0  0  0
  7 22  1  0  0  0  0
  7 23  1  0  0  0  0
  7 24  1  0  0  0  0
  8 25  1  0  0  0  0
  8 26  1  0  0  0  0
  8 27  1  0  0  0  0
  9 28  1  0  0  0  0
 10 29  1  0  0  0  0
 11 30  1  0  0  0  0
 12 31  1  0  0  0  0
 13 32  1  0  0  0  0
 14 33  1  0  0  0  0
M  END
$$$$
