HDY_A_1298
          05071912473D 1   1.00000     0.00000     0
            
 57 60  0  0  0  0            999 V2000
    7.5392   21.9934    5.8756 O   0  0  0  0  0  0  0  0  0  0  0  0
    5.5076   23.4408    6.3177 O   0  0  0  0  0  0  0  0  0  0  0  0
    1.9125   30.4508    6.4961 N   0  0  0  0  0  0  0  0  0  0  0  0
    3.3820   28.6222    6.3337 N   0  0  0  0  0  0  0  0  0  0  0  0
    1.3819   28.4473    7.5600 N   0  0  0  0  0  0  0  0  0  0  0  0
   -2.1791   27.3883   10.3621 N   0  0  0  0  0  0  0  0  0  0  0  0
    5.3529   19.0067    5.3463 N   0  0  0  0  0  0  0  0  0  0  0  0
   -0.4757   26.6986    8.9706 N   0  0  0  0  0  0  0  0  0  0  0  0
    6.1277   17.9644    4.6835 C   0  0  0  0  0  0  0  0  0  0  0  0
    4.5470   18.2995    6.3373 C   0  0  0  0  0  0  0  0  0  0  0  0
   -2.2710   29.8687   10.0322 C   0  0  0  0  0  0  0  0  0  0  0  0
    5.1429   22.2604    5.5707 C   0  0  0  0  0  0  0  0  0  0  0  0
    0.7881   31.0428    6.9276 C   0  0  0  0  0  0  0  0  0  0  0  0
    0.3448   25.8320    8.3535 C   0  0  0  0  0  0  0  0  0  0  0  0
    6.2660   19.9592    6.0012 C   0  0  0  0  0  0  0  0  0  0  0  0
    0.2163   24.4808    8.7022 C   0  0  0  0  0  0  0  0  0  0  0  0
   -0.7506   24.0760    9.6385 C   0  0  0  0  0  0  0  0  0  0  0  0
   -0.1080   30.3106    7.6994 C   0  0  0  0  0  0  0  0  0  0  0  0
   -1.5966   25.0004   10.2493 C   0  0  0  0  0  0  0  0  0  0  0  0
    5.0409   25.5727    5.2282 C   0  0  0  0  0  0  0  0  0  0  0  0
    4.3149   25.2105    7.4828 C   0  0  0  0  0  0  0  0  0  0  0  0
    4.4973   26.8604    5.2680 C   0  0  0  0  0  0  0  0  0  0  0  0
    3.7652   26.5062    7.5277 C   0  0  0  0  0  0  0  0  0  0  0  0
    2.2253   29.1581    6.7997 C   0  0  0  0  0  0  0  0  0  0  0  0
    6.3753   21.3535    5.3504 C   0  0  2  0  0  0  0  0  0  0  0  0
   -1.4419   26.3288    9.9087 C   0  0  0  0  0  0  0  0  0  0  0  0
    4.9429   24.7212    6.3287 C   0  0  0  0  0  0  0  0  0  0  0  0
    3.8522   27.3445    6.4032 C   0  0  0  0  0  0  0  0  0  0  0  0
   -1.7250   28.4968    9.7728 C   0  0  0  0  0  0  0  0  0  0  0  0
    0.2199   28.9900    7.9880 C   0  0  0  0  0  0  0  0  0  0  0  0
   -0.6196   28.1287    8.8322 C   0  0  0  0  0  0  0  0  0  0  0  0
    8.3357   21.4059    5.7326 H   0  0  0  0  0  0  0  0  0  0  0  0
    3.9853   29.2673    5.8647 H   0  0  0  0  0  0  0  0  0  0  0  0
    6.7106   18.3766    3.9834 H   0  0  0  0  0  0  0  0  0  0  0  0
    6.6976   17.4935    5.3570 H   0  0  0  0  0  0  0  0  0  0  0  0
    5.5061   17.3081    4.2557 H   0  0  0  0  0  0  0  0  0  0  0  0
    3.9824   18.9560    6.8377 H   0  0  0  0  0  0  0  0  0  0  0  0
    3.9575   17.6365    5.8760 H   0  0  0  0  0  0  0  0  0  0  0  0
    5.1490   17.8218    6.9772 H   0  0  0  0  0  0  0  0  0  0  0  0
   -1.7736   30.5358    9.4776 H   0  0  0  0  0  0  0  0  0  0  0  0
   -3.2413   29.8924    9.7915 H   0  0  0  0  0  0  0  0  0  0  0  0
   -2.1623   30.0931   11.0007 H   0  0  0  0  0  0  0  0  0  0  0  0
    4.7736   22.5344    4.6828 H   0  0  0  0  0  0  0  0  0  0  0  0
    4.4474   21.7520    6.0785 H   0  0  0  0  0  0  0  0  0  0  0  0
    0.5972   31.9971    6.6975 H   0  0  0  0  0  0  0  0  0  0  0  0
    1.0156   26.1368    7.6774 H   0  0  0  0  0  0  0  0  0  0  0  0
    7.1794   19.5523    6.0063 H   0  0  0  0  0  0  0  0  0  0  0  0
    5.9520   20.0853    6.9422 H   0  0  0  0  0  0  0  0  0  0  0  0
    0.8165   23.8002    8.2820 H   0  0  0  0  0  0  0  0  0  0  0  0
   -0.8331   23.1069    9.8708 H   0  0  0  0  0  0  0  0  0  0  0  0
   -0.9571   30.7188    8.0345 H   0  0  0  0  0  0  0  0  0  0  0  0
   -2.2898   24.7117   10.9097 H   0  0  0  0  0  0  0  0  0  0  0  0
    5.5057   25.2584    4.4004 H   0  0  0  0  0  0  0  0  0  0  0  0
    4.2559   24.6263    8.2922 H   0  0  0  0  0  0  0  0  0  0  0  0
    4.5736   27.4476    4.4622 H   0  0  0  0  0  0  0  0  0  0  0  0
    3.3133   26.8295    8.3591 H   0  0  0  0  0  0  0  0  0  0  0  0
    6.5022   21.2309    4.3661 H   0  0  0  0  0  0  0  0  0  0  0  0
  1 25  1  0  0  0  0
  2 12  1  0  0  0  0
  2 27  1  0  0  0  0
  3 13  2  0  0  0  0
  3 24  1  0  0  0  0
  4 24  1  0  0  0  0
  4 28  1  0  0  0  0
  5 24  2  0  0  0  0
  5 30  1  0  0  0  0
  6 26  2  0  0  0  0
  6 29  1  0  0  0  0
  7  9  1  0  0  0  0
  7 10  1  0  0  0  0
  7 15  1  0  0  0  0
  8 14  1  0  0  0  0
  8 26  1  0  0  0  0
  8 31  1  0  0  0  0
 11 29  1  0  0  0  0
 12 25  1  0  0  0  0
 13 18  1  0  0  0  0
 14 16  2  0  0  0  0
 15 25  1  0  0  0  0
 16 17  1  0  0  0  0
 17 19  2  0  0  0  0
 18 30  2  0  0  0  0
 19 26  1  0  0  0  0
 20 22  2  0  0  0  0
 20 27  1  0  0  0  0
 21 23  1  0  0  0  0
 21 27  2  0  0  0  0
 22 28  1  0  0  0  0
 23 28  2  0  0  0  0
 29 31  2  0  0  0  0
 30 31  1  0  0  0  0
  1 32  1  0  0  0  0
  4 33  1  0  0  0  0
  9 34  1  0  0  0  0
  9 35  1  0  0  0  0
  9 36  1  0  0  0  0
 10 37  1  0  0  0  0
 10 38  1  0  0  0  0
 10 39  1  0  0  0  0
 11 40  1  0  0  0  0
 11 41  1  0  0  0  0
 11 42  1  0  0  0  0
 12 43  1  0  0  0  0
 12 44  1  0  0  0  0
 13 45  1  0  0  0  0
 14 46  1  0  0  0  0
 15 47  1  0  0  0  0
 15 48  1  0  0  0  0
 16 49  1  0  0  0  0
 17 50  1  0  0  0  0
 18 51  1  0  0  0  0
 19 52  1  0  0  0  0
 20 53  1  0  0  0  0
 21 54  1  0  0  0  0
 22 55  1  0  0  0  0
 23 56  1  0  0  0  0
 25 57  1  0  0  0  0
M  END
$$$$
