5BN_A_301
          05071912473D 1   1.00000     0.00000     0
            
 38 41  0  0  0  0            999 V2000
   -3.3190   28.4863   10.5112 F   0  0  0  0  0  0  0  0  0  0  0  0
    2.3105   30.2938    6.3444 O   0  0  0  0  0  0  0  0  0  0  0  0
   -1.0338   25.0214   13.1014 N   0  0  0  0  0  0  0  0  0  0  0  0
   -1.3002   26.1819   10.4060 N   0  0  0  0  0  0  0  0  0  0  0  0
    3.6030   27.8060    6.8341 N   0  0  0  0  0  0  0  0  0  0  0  0
    0.2906   31.1529    7.1270 N   0  0  0  0  0  0  0  0  0  0  0  0
   -1.2564   24.1080   11.9747 C   0  0  0  0  0  0  0  0  0  0  0  0
   -0.8852   24.7510   10.6080 C   0  0  0  0  0  0  0  0  0  0  0  0
    4.7208   27.0365    6.5787 C   0  0  0  0  0  0  0  0  0  0  0  0
    4.5572   25.8406    7.2410 C   0  0  0  0  0  0  0  0  0  0  0  0
    3.3186   25.9050    7.9012 C   0  0  0  0  0  0  0  0  0  0  0  0
   -2.7654   30.4322    9.2773 C   0  0  0  0  0  0  0  0  0  0  0  0
   -1.9171   31.2039    8.4149 C   0  0  0  0  0  0  0  0  0  0  0  0
    0.6127   26.8166    8.9963 C   0  0  0  0  0  0  0  0  0  0  0  0
    1.2962   30.1651    7.0019 C   0  0  0  0  0  0  0  0  0  0  0  0
   -2.4489   29.1201    9.7012 C   0  0  0  0  0  0  0  0  0  0  0  0
    2.7166   27.1731    7.6322 C   0  0  0  0  0  0  0  0  0  0  0  0
   -0.6622   27.1777    9.5601 C   0  0  0  0  0  0  0  0  0  0  0  0
   -0.7197   30.6475    7.9643 C   0  0  0  0  0  0  0  0  0  0  0  0
    1.4438   27.6781    8.1089 C   0  0  0  0  0  0  0  0  0  0  0  0
    0.8451   28.9832    7.8320 C   0  0  0  0  0  0  0  0  0  0  0  0
   -1.2013   28.5040    9.2533 C   0  0  0  0  0  0  0  0  0  0  0  0
   -0.3811   29.3175    8.3884 C   0  0  0  0  0  0  0  0  0  0  0  0
   -1.2856   24.5653   13.9549 H   0  0  0  0  0  0  0  0  0  0  0  0
   -0.0686   25.2810   13.1343 H   0  0  0  0  0  0  0  0  0  0  0  0
   -2.1084   26.4836   10.9117 H   0  0  0  0  0  0  0  0  0  0  0  0
    3.4657   28.7270    6.4696 H   0  0  0  0  0  0  0  0  0  0  0  0
    0.2974   32.0546    6.6946 H   0  0  0  0  0  0  0  0  0  0  0  0
   -2.2224   23.8501   11.9564 H   0  0  0  0  0  0  0  0  0  0  0  0
   -0.6957   23.2908   12.1080 H   0  0  0  0  0  0  0  0  0  0  0  0
    0.1091   24.7063   10.5112 H   0  0  0  0  0  0  0  0  0  0  0  0
   -1.3150   24.2053    9.8886 H   0  0  0  0  0  0  0  0  0  0  0  0
    5.5047   27.2995    6.0163 H   0  0  0  0  0  0  0  0  0  0  0  0
    5.1977   25.0727    7.2504 H   0  0  0  0  0  0  0  0  0  0  0  0
    2.9228   25.1817    8.4670 H   0  0  0  0  0  0  0  0  0  0  0  0
   -3.6212   30.8414    9.5938 H   0  0  0  0  0  0  0  0  0  0  0  0
   -2.1809   32.1286    8.1404 H   0  0  0  0  0  0  0  0  0  0  0  0
    0.9709   25.9100    9.2193 H   0  0  0  0  0  0  0  0  0  0  0  0
  1 16  1  0  0  0  0
  2 15  2  0  0  0  0
  3  7  1  0  0  0  0
  4  8  1  0  0  0  0
  4 18  1  0  0  0  0
  5  9  1  0  0  0  0
  5 17  1  0  0  0  0
  6 15  1  0  0  0  0
  6 19  1  0  0  0  0
  7  8  1  0  0  0  0
  9 10  2  0  0  0  0
 10 11  1  0  0  0  0
 11 17  2  0  0  0  0
 12 13  1  0  0  0  0
 12 16  2  0  0  0  0
 13 19  2  0  0  0  0
 14 18  1  0  0  0  0
 14 20  2  0  0  0  0
 15 21  1  0  0  0  0
 16 22  1  0  0  0  0
 17 20  1  0  0  0  0
 18 22  2  0  0  0  0
 19 23  1  0  0  0  0
 20 21  1  0  0  0  0
 21 23  2  0  0  0  0
 22 23  1  0  0  0  0
  3 24  1  0  0  0  0
  3 25  1  0  0  0  0
  4 26  1  0  0  0  0
  5 27  1  0  0  0  0
  6 28  1  0  0  0  0
  7 29  1  0  0  0  0
  7 30  1  0  0  0  0
  8 31  1  0  0  0  0
  8 32  1  0  0  0  0
  9 33  1  0  0  0  0
 10 34  1  0  0  0  0
 11 35  1  0  0  0  0
 12 36  1  0  0  0  0
 13 37  1  0  0  0  0
 14 38  1  0  0  0  0
M  END
$$$$
