CK1_A_500
          05071912473D 1   1.00000     0.00000     0
            
 19 20  0  0  0  0            999 V2000
   -0.7206   23.0754    9.1798 Cl  0  0  0  0  0  0  0  0  0  0  0  0
   -0.1876   28.0231   11.4524 Cl  0  0  0  0  0  0  0  0  0  0  0  0
   -0.6670   25.3238   11.1117 S   0  0  0  0  0  0  0  0  0  0  0  0
   -0.3131   31.4567    7.7787 N   0  0  0  0  0  0  0  0  0  0  0  0
    1.1962   30.1949    6.7406 N   0  0  0  0  0  0  0  0  0  0  0  0
   -0.1127   29.2809    8.3903 N   0  0  0  0  0  0  0  0  0  0  0  0
    1.8734   28.9948    6.5136 C   0  0  0  0  0  0  0  0  0  0  0  0
    1.5152   27.8929    7.3309 C   0  0  0  0  0  0  0  0  0  0  0  0
   -0.0731   25.5916    8.5477 C   0  0  0  0  0  0  0  0  0  0  0  0
   -0.4825   24.6632    9.5882 C   0  0  0  0  0  0  0  0  0  0  0  0
   -0.2273   26.8030   10.4535 C   0  0  0  0  0  0  0  0  0  0  0  0
    0.2468   30.2526    7.6007 C   0  0  0  0  0  0  0  0  0  0  0  0
    0.4641   28.0392    8.3032 C   0  0  0  0  0  0  0  0  0  0  0  0
    0.0792   26.8937    9.1326 C   0  0  0  0  0  0  0  0  0  0  0  0
   -1.0589   31.5692    8.4353 H   0  0  0  0  0  0  0  0  0  0  0  0
    0.0148   32.2429    7.2549 H   0  0  0  0  0  0  0  0  0  0  0  0
    2.5777   28.9163    5.8079 H   0  0  0  0  0  0  0  0  0  0  0  0
    1.9905   27.0186    7.2323 H   0  0  0  0  0  0  0  0  0  0  0  0
    0.0772   25.3620    7.5860 H   0  0  0  0  0  0  0  0  0  0  0  0
  1 10  1  0  0  0  0
  2 11  1  0  0  0  0
  3 10  1  0  0  0  0
  3 11  1  0  0  0  0
  4 12  1  0  0  0  0
  5  7  1  0  0  0  0
  5 12  2  0  0  0  0
  6 12  1  0  0  0  0
  6 13  2  0  0  0  0
  7  8  2  0  0  0  0
  8 13  1  0  0  0  0
  9 10  2  0  0  0  0
  9 14  1  0  0  0  0
 11 14  2  0  0  0  0
 13 14  1  0  0  0  0
  4 15  1  0  0  0  0
  4 16  1  0  0  0  0
  7 17  1  0  0  0  0
  8 18  1  0  0  0  0
  9 19  1  0  0  0  0
M  END
$$$$
