CK2_A_500
          05071912473D 1   1.00000     0.00000     0
            
 24 25  0  0  0  0            999 V2000
   -0.0484   25.4719    8.2072 S   0  0  0  0  0  0  0  0  0  0  0  0
    0.1292   31.5284    7.6252 N   0  0  0  0  0  0  0  0  0  0  0  0
    1.5384   30.2719    6.4456 N   0  0  0  0  0  0  0  0  0  0  0  0
   -0.5737   25.9003   10.4945 N   0  0  0  0  0  0  0  0  0  0  0  0
    0.1517   29.4292    8.0973 N   0  0  0  0  0  0  0  0  0  0  0  0
   -1.0671   23.5713   10.1103 C   0  0  0  0  0  0  0  0  0  0  0  0
   -0.1927   28.0504   11.0741 C   0  0  0  0  0  0  0  0  0  0  0  0
    2.0672   29.0352    6.2660 C   0  0  0  0  0  0  0  0  0  0  0  0
    1.6536   27.9531    7.0045 C   0  0  0  0  0  0  0  0  0  0  0  0
   -0.5978   24.9625    9.6861 C   0  0  0  0  0  0  0  0  0  0  0  0
    0.6147   30.3515    7.3718 C   0  0  0  0  0  0  0  0  0  0  0  0
    0.1853   27.0999    8.7786 C   0  0  0  0  0  0  0  0  0  0  0  0
   -0.1459   27.0802   10.0508 C   0  0  0  0  0  0  0  0  0  0  0  0
    0.6690   28.2123    7.9570 C   0  0  0  0  0  0  0  0  0  0  0  0
   -0.5777   31.6379    8.3240 H   0  0  0  0  0  0  0  0  0  0  0  0
    0.4621   32.3257    7.1216 H   0  0  0  0  0  0  0  0  0  0  0  0
   -1.3371   23.5897   11.0730 H   0  0  0  0  0  0  0  0  0  0  0  0
   -1.8491   23.2980    9.5500 H   0  0  0  0  0  0  0  0  0  0  0  0
   -0.3223   22.9158    9.9855 H   0  0  0  0  0  0  0  0  0  0  0  0
    0.1326   28.9264   10.7180 H   0  0  0  0  0  0  0  0  0  0  0  0
   -1.1342   28.1503   11.3959 H   0  0  0  0  0  0  0  0  0  0  0  0
    0.3904   27.7621   11.8337 H   0  0  0  0  0  0  0  0  0  0  0  0
    2.7792   28.9077    5.5755 H   0  0  0  0  0  0  0  0  0  0  0  0
    2.0341   27.0385    6.8677 H   0  0  0  0  0  0  0  0  0  0  0  0
  1 10  1  0  0  0  0
  1 12  1  0  0  0  0
  2 11  1  0  0  0  0
  3  8  1  0  0  0  0
  3 11  2  0  0  0  0
  4 10  2  0  0  0  0
  4 13  1  0  0  0  0
  5 11  1  0  0  0  0
  5 14  2  0  0  0  0
  6 10  1  0  0  0  0
  7 13  1  0  0  0  0
  8  9  2  0  0  0  0
  9 14  1  0  0  0  0
 12 13  2  0  0  0  0
 12 14  1  0  0  0  0
  2 15  1  0  0  0  0
  2 16  1  0  0  0  0
  6 17  1  0  0  0  0
  6 18  1  0  0  0  0
  6 19  1  0  0  0  0
  7 20  1  0  0  0  0
  7 21  1  0  0  0  0
  7 22  1  0  0  0  0
  8 23  1  0  0  0  0
  9 24  1  0  0  0  0
M  END
$$$$
