CK3_A_500
          05071912473D 1   1.00000     0.00000     0
            
 28 29  0  0  0  0            999 V2000
    0.4669   26.7019    9.3013 S   0  0  0  0  0  0  0  0  0  0  0  0
    5.1269   26.5953    4.1467 O   0  0  0  0  0  0  0  0  0  0  0  0
    5.1085   26.6223    5.4594 N   0  0  0  0  0  0  0  0  0  0  0  0
    3.3711   28.1843    5.7144 N   0  0  0  0  0  0  0  0  0  0  0  0
    2.4390   30.3355    6.2165 N   0  0  0  0  0  0  0  0  0  0  0  0
   -1.5691   27.6565   10.5686 N   0  0  0  0  0  0  0  0  0  0  0  0
    1.7055   28.3804    7.2988 N   0  0  0  0  0  0  0  0  0  0  0  0
   -1.0473   25.2671   11.1560 C   0  0  0  0  0  0  0  0  0  0  0  0
   -1.8514   29.9924    9.8067 C   0  0  0  0  0  0  0  0  0  0  0  0
    4.3625   27.3027    6.2262 C   0  0  0  0  0  0  0  0  0  0  0  0
    1.5757   31.0651    6.9105 C   0  0  0  0  0  0  0  0  0  0  0  0
    0.7141   30.4661    7.8501 C   0  0  0  0  0  0  0  0  0  0  0  0
   -0.8182   26.5676   10.4151 C   0  0  0  0  0  0  0  0  0  0  0  0
    2.4528   29.0255    6.4276 C   0  0  0  0  0  0  0  0  0  0  0  0
    0.0043   28.3443    8.9698 C   0  0  0  0  0  0  0  0  0  0  0  0
   -1.1002   28.6664    9.7595 C   0  0  0  0  0  0  0  0  0  0  0  0
    0.8169   29.0617    8.0337 C   0  0  0  0  0  0  0  0  0  0  0  0
    5.7762   26.0045    3.6678 H   0  0  0  0  0  0  0  0  0  0  0  0
    3.3044   28.2237    4.7174 H   0  0  0  0  0  0  0  0  0  0  0  0
   -1.8359   25.3640   11.7633 H   0  0  0  0  0  0  0  0  0  0  0  0
   -1.2214   24.5347   10.4978 H   0  0  0  0  0  0  0  0  0  0  0  0
   -0.2360   25.0439   11.6963 H   0  0  0  0  0  0  0  0  0  0  0  0
   -1.4201   30.6423    9.1808 H   0  0  0  0  0  0  0  0  0  0  0  0
   -2.8021   29.8469    9.5329 H   0  0  0  0  0  0  0  0  0  0  0  0
   -1.8246   30.3578   10.7371 H   0  0  0  0  0  0  0  0  0  0  0  0
    4.4742   27.2171    7.2163 H   0  0  0  0  0  0  0  0  0  0  0  0
    1.5360   32.0536    6.7647 H   0  0  0  0  0  0  0  0  0  0  0  0
    0.0543   31.0098    8.3688 H   0  0  0  0  0  0  0  0  0  0  0  0
  1 13  1  0  0  0  0
  1 15  1  0  0  0  0
  2  3  1  0  0  0  0
  3 10  2  0  0  0  0
  4 10  1  0  0  0  0
  4 14  1  0  0  0  0
  5 11  2  0  0  0  0
  5 14  1  0  0  0  0
  6 13  2  0  0  0  0
  6 16  1  0  0  0  0
  7 14  2  0  0  0  0
  7 17  1  0  0  0  0
  8 13  1  0  0  0  0
  9 16  1  0  0  0  0
 11 12  1  0  0  0  0
 12 17  2  0  0  0  0
 15 16  2  0  0  0  0
 15 17  1  0  0  0  0
  2 18  1  0  0  0  0
  4 19  1  0  0  0  0
  8 20  1  0  0  0  0
  8 21  1  0  0  0  0
  8 22  1  0  0  0  0
  9 23  1  0  0  0  0
  9 24  1  0  0  0  0
  9 25  1  0  0  0  0
 10 26  1  0  0  0  0
 11 27  1  0  0  0  0
 12 28  1  0  0  0  0
M  END
$$$$
