CK7_A_500
          05071912473D 1   1.00000     0.00000     0
            
 23 24  0  0  0  0            999 V2000
   -0.4705   27.6884    9.8590 S   0  0  0  0  0  0  0  0  0  0  0  0
   -1.5967   26.4914   11.8633 N   0  0  0  0  0  0  0  0  0  0  0  0
    2.8521   28.4087    6.3959 N   0  0  0  0  0  0  0  0  0  0  0  0
    1.9165   30.4235    6.5305 N   0  0  0  0  0  0  0  0  0  0  0  0
   -2.3273   28.9111   11.1266 N   0  0  0  0  0  0  0  0  0  0  0  0
    0.9813   28.7977    7.8012 N   0  0  0  0  0  0  0  0  0  0  0  0
   -2.6493   31.1790   10.0885 C   0  0  0  0  0  0  0  0  0  0  0  0
    0.9966   31.3458    6.9473 C   0  0  0  0  0  0  0  0  0  0  0  0
    0.0151   31.0006    7.8345 C   0  0  0  0  0  0  0  0  0  0  0  0
   -1.6053   27.7664   11.0833 C   0  0  0  0  0  0  0  0  0  0  0  0
    1.9029   29.1636    6.9140 C   0  0  0  0  0  0  0  0  0  0  0  0
   -0.9150   29.1817    9.2893 C   0  0  0  0  0  0  0  0  0  0  0  0
   -1.9655   29.8460   10.1778 C   0  0  0  0  0  0  0  0  0  0  0  0
    0.0564   29.6902    8.2849 C   0  0  0  0  0  0  0  0  0  0  0  0
   -2.2206   26.3737   12.6359 H   0  0  0  0  0  0  0  0  0  0  0  0
   -0.9670   25.7561   11.6126 H   0  0  0  0  0  0  0  0  0  0  0  0
    2.9088   27.4402    6.6383 H   0  0  0  0  0  0  0  0  0  0  0  0
    3.5151   28.8049    5.7607 H   0  0  0  0  0  0  0  0  0  0  0  0
   -2.2477   31.7104    9.3427 H   0  0  0  0  0  0  0  0  0  0  0  0
   -3.6243   31.0424    9.9131 H   0  0  0  0  0  0  0  0  0  0  0  0
   -2.5317   31.6723   10.9504 H   0  0  0  0  0  0  0  0  0  0  0  0
    1.0422   32.2823    6.5996 H   0  0  0  0  0  0  0  0  0  0  0  0
   -0.6839   31.6484    8.1375 H   0  0  0  0  0  0  0  0  0  0  0  0
  1 10  1  0  0  0  0
  1 12  1  0  0  0  0
  2 10  1  0  0  0  0
  3 11  1  0  0  0  0
  4  8  1  0  0  0  0
  4 11  2  0  0  0  0
  5 10  2  0  0  0  0
  5 13  1  0  0  0  0
  6 11  1  0  0  0  0
  6 14  2  0  0  0  0
  7 13  1  0  0  0  0
  8  9  2  0  0  0  0
  9 14  1  0  0  0  0
 12 13  2  0  0  0  0
 12 14  1  0  0  0  0
  2 15  1  0  0  0  0
  2 16  1  0  0  0  0
  3 17  1  0  0  0  0
  3 18  1  0  0  0  0
  7 19  1  0  0  0  0
  7 20  1  0  0  0  0
  7 21  1  0  0  0  0
  8 22  1  0  0  0  0
  9 23  1  0  0  0  0
M  END
$$$$
