CK8_A_500
          05071912473D 1   1.00000     0.00000     0
            
 42 44  0  0  0  0            999 V2000
    0.1984   27.0372    9.9150 S   0  0  0  0  0  0  0  0  0  0  0  0
    2.0584   30.6412    6.7218 N   0  0  0  0  0  0  0  0  0  0  0  0
   -2.1601   27.6565   10.7541 N   0  0  0  0  0  0  0  0  0  0  0  0
    3.3522   28.6963    6.5552 N   0  0  0  0  0  0  0  0  0  0  0  0
    1.4023   28.7288    7.9394 N   0  0  0  0  0  0  0  0  0  0  0  0
    5.8349   23.4209    6.8957 N   0  0  0  0  0  0  0  0  0  0  0  0
    7.0510   23.0622    6.1062 C   0  0  0  0  0  0  0  0  0  0  0  0
    5.3079   22.3252    7.7650 C   0  0  0  0  0  0  0  0  0  0  0  0
   -1.3117   25.4589   11.6430 C   0  0  0  0  0  0  0  0  0  0  0  0
   -2.7632   29.8356    9.7530 C   0  0  0  0  0  0  0  0  0  0  0  0
    1.0021   31.3305    7.2130 C   0  0  0  0  0  0  0  0  0  0  0  0
    0.0742   30.7287    8.1137 C   0  0  0  0  0  0  0  0  0  0  0  0
    3.4029   26.3512    7.5283 C   0  0  0  0  0  0  0  0  0  0  0  0
    5.0982   27.0880    5.9074 C   0  0  0  0  0  0  0  0  0  0  0  0
    4.0152   25.0809    7.6005 C   0  0  0  0  0  0  0  0  0  0  0  0
    5.7127   25.8167    5.9747 C   0  0  0  0  0  0  0  0  0  0  0  0
    2.2141   29.3753    7.1047 C   0  0  0  0  0  0  0  0  0  0  0  0
   -1.2043   26.7282   10.8227 C   0  0  0  0  0  0  0  0  0  0  0  0
   -1.7724   28.6908    9.9342 C   0  0  0  0  0  0  0  0  0  0  0  0
   -0.4871   28.5490    9.3612 C   0  0  0  0  0  0  0  0  0  0  0  0
    3.9382   27.3688    6.6760 C   0  0  0  0  0  0  0  0  0  0  0  0
    0.3263   29.3448    8.4673 C   0  0  0  0  0  0  0  0  0  0  0  0
    5.1877   24.7772    6.8223 C   0  0  0  0  0  0  0  0  0  0  0  0
    3.8735   29.2811    5.9337 H   0  0  0  0  0  0  0  0  0  0  0  0
    7.3347   23.8475    5.5559 H   0  0  0  0  0  0  0  0  0  0  0  0
    7.7901   22.8076    6.7297 H   0  0  0  0  0  0  0  0  0  0  0  0
    6.8423   22.2914    5.5043 H   0  0  0  0  0  0  0  0  0  0  0  0
    4.4983   22.6487    8.2549 H   0  0  0  0  0  0  0  0  0  0  0  0
    5.0624   21.5389    7.1981 H   0  0  0  0  0  0  0  0  0  0  0  0
    6.0102   22.0551    8.4235 H   0  0  0  0  0  0  0  0  0  0  0  0
   -2.1956   25.4379   12.1103 H   0  0  0  0  0  0  0  0  0  0  0  0
   -1.2344   24.6649   11.0401 H   0  0  0  0  0  0  0  0  0  0  0  0
   -0.5761   25.4363   12.3200 H   0  0  0  0  0  0  0  0  0  0  0  0
   -2.3712   30.5218    9.1402 H   0  0  0  0  0  0  0  0  0  0  0  0
   -3.6119   29.4827    9.3591 H   0  0  0  0  0  0  0  0  0  0  0  0
   -2.9562   30.2531   10.6410 H   0  0  0  0  0  0  0  0  0  0  0  0
    0.8692   32.2828    6.9383 H   0  0  0  0  0  0  0  0  0  0  0  0
   -0.7072   31.2331    8.4812 H   0  0  0  0  0  0  0  0  0  0  0  0
    2.5888   26.5414    8.0770 H   0  0  0  0  0  0  0  0  0  0  0  0
    5.4835   27.7947    5.3140 H   0  0  0  0  0  0  0  0  0  0  0  0
    3.6284   24.3815    8.2015 H   0  0  0  0  0  0  0  0  0  0  0  0
    6.5272   25.6357    5.4235 H   0  0  0  0  0  0  0  0  0  0  0  0
  1 18  1  0  0  0  0
  1 20  1  0  0  0  0
  2 11  2  0  0  0  0
  2 17  1  0  0  0  0
  3 18  2  0  0  0  0
  3 19  1  0  0  0  0
  4 17  1  0  0  0  0
  4 21  1  0  0  0  0
  5 17  2  0  0  0  0
  5 22  1  0  0  0  0
  6  7  1  0  0  0  0
  6  8  1  0  0  0  0
  6 23  1  0  0  0  0
  9 18  1  0  0  0  0
 10 19  1  0  0  0  0
 11 12  1  0  0  0  0
 12 22  2  0  0  0  0
 13 15  1  0  0  0  0
 13 21  2  0  0  0  0
 14 16  2  0  0  0  0
 14 21  1  0  0  0  0
 15 23  2  0  0  0  0
 16 23  1  0  0  0  0
 19 20  2  0  0  0  0
 20 22  1  0  0  0  0
  4 24  1  0  0  0  0
  7 25  1  0  0  0  0
  7 26  1  0  0  0  0
  7 27  1  0  0  0  0
  8 28  1  0  0  0  0
  8 29  1  0  0  0  0
  8 30  1  0  0  0  0
  9 31  1  0  0  0  0
  9 32  1  0  0  0  0
  9 33  1  0  0  0  0
 10 34  1  0  0  0  0
 10 35  1  0  0  0  0
 10 36  1  0  0  0  0
 11 37  1  0  0  0  0
 12 38  1  0  0  0  0
 13 39  1  0  0  0  0
 14 40  1  0  0  0  0
 15 41  1  0  0  0  0
 16 42  1  0  0  0  0
M  END
$$$$
