PM1_A_700
          05071912473D 1   1.00000     0.00000     0
            
 41 44  0  0  0  0            999 V2000
   -4.3127   27.9342    9.6202 F   0  0  0  0  0  0  0  0  0  0  0  0
   -0.0849   28.3211   12.0101 F   0  0  0  0  0  0  0  0  0  0  0  0
    3.1961   26.0581    6.7014 O   0  0  0  0  0  0  0  0  0  0  0  0
   -2.7656   30.6159   10.2609 O   0  0  0  0  0  0  0  0  0  0  0  0
    3.6760   28.2263    5.2660 N   0  0  0  0  0  0  0  0  0  0  0  0
    2.0846   29.9582    6.0220 N   0  0  0  0  0  0  0  0  0  0  0  0
    0.9127   28.8189    7.5996 N   0  0  0  0  0  0  0  0  0  0  0  0
    0.3172   23.9737   10.3034 C   0  0  0  0  0  0  0  0  0  0  0  0
   -0.2958   24.1640    9.0263 C   0  0  0  0  0  0  0  0  0  0  0  0
    1.5505   24.6264   10.6209 C   0  0  0  0  0  0  0  0  0  0  0  0
   -2.6665   25.7246   12.0418 C   0  0  0  0  0  0  0  0  0  0  0  0
   -0.0542   28.7078    8.5644 C   0  0  0  0  0  0  0  0  0  0  0  0
   -3.6226   26.2465   11.1112 C   0  0  0  0  0  0  0  0  0  0  0  0
   -1.4667   26.4494   12.3284 C   0  0  0  0  0  0  0  0  0  0  0  0
    0.3439   25.0154    8.0494 C   0  0  0  0  0  0  0  0  0  0  0  0
    2.1960   25.4756    9.6572 C   0  0  0  0  0  0  0  0  0  0  0  0
    0.2478   31.1579    7.2170 C   0  0  0  0  0  0  0  0  0  0  0  0
   -0.7582   31.0139    8.2304 C   0  0  0  0  0  0  0  0  0  0  0  0
   -3.3802   27.5101   10.4744 C   0  0  0  0  0  0  0  0  0  0  0  0
   -1.2363   27.7130   11.6873 C   0  0  0  0  0  0  0  0  0  0  0  0
    2.5712   28.7071    6.0957 C   0  0  0  0  0  0  0  0  0  0  0  0
    2.2498   26.5430    7.3582 C   0  0  0  0  0  0  0  0  0  0  0  0
   -2.0245   29.6378    9.9876 C   0  0  0  0  0  0  0  0  0  0  0  0
    1.0811   30.0747    6.9217 C   0  0  0  0  0  0  0  0  0  0  0  0
   -0.9401   29.7689    8.9261 C   0  0  0  0  0  0  0  0  0  0  0  0
    1.5953   25.6712    8.3655 C   0  0  0  0  0  0  0  0  0  0  0  0
    1.8965   27.9524    7.0859 C   0  0  0  0  0  0  0  0  0  0  0  0
   -2.1986   28.2915   10.7132 C   0  0  0  0  0  0  0  0  0  0  0  0
    3.9998   27.2850    5.3610 H   0  0  0  0  0  0  0  0  0  0  0  0
    4.1075   28.8391    4.6038 H   0  0  0  0  0  0  0  0  0  0  0  0
   -0.1189   23.3802   10.9798 H   0  0  0  0  0  0  0  0  0  0  0  0
   -1.1610   23.7115    8.8104 H   0  0  0  0  0  0  0  0  0  0  0  0
    1.9666   24.4907   11.5201 H   0  0  0  0  0  0  0  0  0  0  0  0
   -2.8386   24.8491   12.4934 H   0  0  0  0  0  0  0  0  0  0  0  0
   -0.1448   27.8343    9.0426 H   0  0  0  0  0  0  0  0  0  0  0  0
   -4.4555   25.7325   10.9060 H   0  0  0  0  0  0  0  0  0  0  0  0
   -0.7947   26.0791   12.9697 H   0  0  0  0  0  0  0  0  0  0  0  0
   -0.0786   25.1518    7.1534 H   0  0  0  0  0  0  0  0  0  0  0  0
    3.0584   25.9280    9.8840 H   0  0  0  0  0  0  0  0  0  0  0  0
    0.3516   32.0236    6.7273 H   0  0  0  0  0  0  0  0  0  0  0  0
   -1.3427   31.7931    8.4566 H   0  0  0  0  0  0  0  0  0  0  0  0
  1 19  1  0  0  0  0
  2 20  1  0  0  0  0
  3 22  2  0  0  0  0
  4 23  2  0  0  0  0
  5 21  1  0  0  0  0
  6 21  1  0  0  0  0
  6 24  2  0  0  0  0
  7 12  1  0  0  0  0
  7 24  1  0  0  0  0
  7 27  1  0  0  0  0
  8  9  2  0  0  0  0
  8 10  1  0  0  0  0
  9 15  1  0  0  0  0
 10 16  2  0  0  0  0
 11 13  2  0  0  0  0
 11 14  1  0  0  0  0
 12 25  2  0  0  0  0
 13 19  1  0  0  0  0
 14 20  2  0  0  0  0
 15 26  2  0  0  0  0
 16 26  1  0  0  0  0
 17 18  2  0  0  0  0
 17 24  1  0  0  0  0
 18 25  1  0  0  0  0
 19 28  2  0  0  0  0
 20 28  1  0  0  0  0
 21 27  2  0  0  0  0
 22 26  1  0  0  0  0
 22 27  1  0  0  0  0
 23 25  1  0  0  0  0
 23 28  1  0  0  0  0
  5 29  1  0  0  0  0
  5 30  1  0  0  0  0
  8 31  1  0  0  0  0
  9 32  1  0  0  0  0
 10 33  1  0  0  0  0
 11 34  1  0  0  0  0
 12 35  1  0  0  0  0
 13 36  1  0  0  0  0
 14 37  1  0  0  0  0
 15 38  1  0  0  0  0
 16 39  1  0  0  0  0
 17 40  1  0  0  0  0
 18 41  1  0  0  0  0
M  END
$$$$
