FMD_A_299
          05071912473D 1   1.00000     0.00000     0
            
 48 50  0  0  0  0            999 V2000
   -3.4307   29.0869   10.7938 F   0  0  0  0  0  0  0  0  0  0  0  0
    2.2004   30.3450    6.4665 O   0  0  0  0  0  0  0  0  0  0  0  0
   -0.6887   21.7388   10.6491 O   0  0  0  0  0  0  0  0  0  0  0  0
   -0.8984   25.4767   12.7172 O   0  0  0  0  0  0  0  0  0  0  0  0
    2.8009   25.2746    9.2417 O   0  0  0  0  0  0  0  0  0  0  0  0
   -1.5097   24.4132    9.1824 N   0  0  0  0  0  0  0  0  0  0  0  0
    3.5094   28.0643    7.1035 N   0  0  0  0  0  0  0  0  0  0  0  0
    0.1965   31.1971    7.2498 N   0  0  0  0  0  0  0  0  0  0  0  0
    3.2582   23.9148    9.1571 C   0  0  0  0  0  0  0  0  0  0  0  0
    0.7653   23.1855   11.9477 C   0  0  0  0  0  0  0  0  0  0  0  0
    4.6424   27.3439    6.9050 C   0  0  0  0  0  0  0  0  0  0  0  0
   -2.8783   30.9038    9.3678 C   0  0  0  0  0  0  0  0  0  0  0  0
    4.5785   26.2085    7.6474 C   0  0  0  0  0  0  0  0  0  0  0  0
   -0.9294   26.6336   10.7290 C   0  0  0  0  0  0  0  0  0  0  0  0
   -2.0061   31.5171    8.4476 C   0  0  0  0  0  0  0  0  0  0  0  0
   -1.1571   27.6941   10.2250 C   0  0  0  0  0  0  0  0  0  0  0  0
    1.4067   27.9422    8.4184 C   0  0  0  0  0  0  0  0  0  0  0  0
    1.2134   30.2300    7.1653 C   0  0  0  0  0  0  0  0  0  0  0  0
   -2.5741   29.6531    9.9245 C   0  0  0  0  0  0  0  0  0  0  0  0
   -0.1290   23.0585   10.6933 C   0  0  2  0  0  0  0  0  0  0  0  0
   -0.6064   25.3965   11.3188 C   0  0  2  0  0  0  0  0  0  0  0  0
    3.3068   26.2135    8.3631 C   0  0  0  0  0  0  0  0  0  0  0  0
   -1.2007   24.1604   10.5961 C   0  0  1  0  0  0  0  0  0  0  0  0
    2.6979   27.3995    8.0007 C   0  0  0  0  0  0  0  0  0  0  0  0
   -0.8388   30.8539    8.0969 C   0  0  0  0  0  0  0  0  0  0  0  0
    0.6903   29.1935    8.1198 C   0  0  0  0  0  0  0  0  0  0  0  0
   -1.4046   28.9397    9.6161 C   0  0  0  0  0  0  0  0  0  0  0  0
   -0.4956   29.5831    8.6536 C   0  0  0  0  0  0  0  0  0  0  0  0
   -1.2688   21.6496    9.8394 H   0  0  0  0  0  0  0  0  0  0  0  0
   -0.6753   24.6058   13.1548 H   0  0  0  0  0  0  0  0  0  0  0  0
   -2.2054   25.1284    9.1160 H   0  0  0  0  0  0  0  0  0  0  0  0
   -0.6808   24.7095    8.7079 H   0  0  0  0  0  0  0  0  0  0  0  0
    3.2960   28.9390    6.6683 H   0  0  0  0  0  0  0  0  0  0  0  0
    2.8004   23.3651    9.8558 H   0  0  0  0  0  0  0  0  0  0  0  0
    3.0455   23.5473    8.2517 H   0  0  0  0  0  0  0  0  0  0  0  0
    4.2468   23.8857    9.3049 H   0  0  0  0  0  0  0  0  0  0  0  0
    1.1591   24.1039   11.9848 H   0  0  0  0  0  0  0  0  0  0  0  0
    0.2148   23.0255   12.7671 H   0  0  0  0  0  0  0  0  0  0  0  0
    1.5005   22.5091   11.9027 H   0  0  0  0  0  0  0  0  0  0  0  0
    5.4011   27.6066    6.3088 H   0  0  0  0  0  0  0  0  0  0  0  0
   -3.7258   31.3665    9.6278 H   0  0  0  0  0  0  0  0  0  0  0  0
    5.2783   25.4958    7.6951 H   0  0  0  0  0  0  0  0  0  0  0  0
   -2.2234   32.4110    8.0554 H   0  0  0  0  0  0  0  0  0  0  0  0
    1.4745   27.9505    9.4161 H   0  0  0  0  0  0  0  0  0  0  0  0
    0.7591   27.2351    8.1342 H   0  0  0  0  0  0  0  0  0  0  0  0
    0.4661   23.1539    9.8953 H   0  0  0  0  0  0  0  0  0  0  0  0
    0.3871   25.3072   11.2482 H   0  0  0  0  0  0  0  0  0  0  0  0
   -2.0292   23.8628   11.0706 H   0  0  0  0  0  0  0  0  0  0  0  0
  1 19  1  0  0  0  0
  2 18  2  0  0  0  0
  3 20  1  0  0  0  0
  4 21  1  0  0  0  0
  5  9  1  0  0  0  0
  5 22  1  0  0  0  0
  6 23  1  0  0  0  0
  7 11  1  0  0  0  0
  7 24  1  0  0  0  0
  8 18  1  0  0  0  0
  8 25  2  0  0  0  0
 10 20  1  0  0  0  0
 11 13  2  0  0  0  0
 12 15  2  0  0  0  0
 12 19  1  0  0  0  0
 13 22  1  0  0  0  0
 14 16  3  0  0  0  0
 14 21  1  0  0  0  0
 15 25  1  0  0  0  0
 16 27  1  0  0  0  0
 17 24  1  0  0  0  0
 17 26  1  0  0  0  0
 18 26  1  0  0  0  0
 19 27  2  0  0  0  0
 20 23  1  0  0  0  0
 21 23  1  0  0  0  0
 22 24  2  0  0  0  0
 25 28  1  0  0  0  0
 26 28  2  0  0  0  0
 27 28  1  0  0  0  0
  3 29  1  0  0  0  0
  4 30  1  0  0  0  0
  6 31  1  0  0  0  0
  6 32  1  0  0  0  0
  7 33  1  0  0  0  0
  9 34  1  0  0  0  0
  9 35  1  0  0  0  0
  9 36  1  0  0  0  0
 10 37  1  0  0  0  0
 10 38  1  0  0  0  0
 10 39  1  0  0  0  0
 11 40  1  0  0  0  0
 12 41  1  0  0  0  0
 13 42  1  0  0  0  0
 15 43  1  0  0  0  0
 17 44  1  0  0  0  0
 17 45  1  0  0  0  0
 20 46  1  0  0  0  0
 21 47  1  0  0  0  0
 23 48  1  0  0  0  0
M  END
$$$$
