N5B_A_300
          05071912473D 1   1.00000     0.00000     0
            
 30 32  0  0  0  0            999 V2000
    2.4770   26.7530    7.9366 O   0  0  0  0  0  0  0  0  0  0  0  0
    1.9067   30.7280    6.4120 N   0  0  0  0  0  0  0  0  0  0  0  0
    0.8111   31.3267    6.9351 N   0  0  0  0  0  0  0  0  0  0  0  0
    2.8337   28.3752    6.4065 N   0  0  0  0  0  0  0  0  0  0  0  0
    6.5468   24.7855    5.5415 C   0  0  0  0  0  0  0  0  0  0  0  0
    6.1124   24.6920    6.8827 C   0  0  0  0  0  0  0  0  0  0  0  0
    5.9043   25.6702    4.6406 C   0  0  0  0  0  0  0  0  0  0  0  0
    5.0251   25.4894    7.3316 C   0  0  0  0  0  0  0  0  0  0  0  0
    4.8182   26.4685    5.0836 C   0  0  0  0  0  0  0  0  0  0  0  0
   -2.4087   29.7038    8.1004 C   0  0  0  0  0  0  0  0  0  0  0  0
   -1.9384   30.0716    9.5262 C   0  0  0  0  0  0  0  0  0  0  0  0
    0.6946   29.1711    7.5068 C   0  0  0  0  0  0  0  0  0  0  0  0
    3.1550   27.1895    6.9900 C   0  0  0  0  0  0  0  0  0  0  0  0
    1.8508   29.3972    6.7574 C   0  0  0  0  0  0  0  0  0  0  0  0
    0.0467   30.3963    7.6147 C   0  0  0  0  0  0  0  0  0  0  0  0
    4.3492   26.3966    6.4431 C   0  0  0  0  0  0  0  0  0  0  0  0
   -1.2721   30.7133    8.3464 C   0  0  0  0  0  0  0  0  0  0  0  0
    2.6239   31.1709    5.8740 H   0  0  0  0  0  0  0  0  0  0  0  0
    3.3678   28.5859    5.5878 H   0  0  0  0  0  0  0  0  0  0  0  0
    7.3121   24.2242    5.2263 H   0  0  0  0  0  0  0  0  0  0  0  0
    6.5691   24.0659    7.5147 H   0  0  0  0  0  0  0  0  0  0  0  0
    6.2162   25.7321    3.6926 H   0  0  0  0  0  0  0  0  0  0  0  0
    4.7243   25.4185    8.2826 H   0  0  0  0  0  0  0  0  0  0  0  0
    4.3713   27.0912    4.4413 H   0  0  0  0  0  0  0  0  0  0  0  0
   -3.2977   30.0165    7.7658 H   0  0  0  0  0  0  0  0  0  0  0  0
   -2.2083   28.8009    7.7201 H   0  0  0  0  0  0  0  0  0  0  0  0
   -1.4406   29.4003   10.0752 H   0  0  0  0  0  0  0  0  0  0  0  0
   -2.5301   30.6159   10.1210 H   0  0  0  0  0  0  0  0  0  0  0  0
    0.3918   28.2987    7.8907 H   0  0  0  0  0  0  0  0  0  0  0  0
   -1.5660   31.6593    8.2102 H   0  0  0  0  0  0  0  0  0  0  0  0
  1 13  2  0  0  0  0
  2  3  1  0  0  0  0
  2 14  1  0  0  0  0
  3 15  2  0  0  0  0
  4 13  1  0  0  0  0
  4 14  1  0  0  0  0
  5  6  2  0  0  0  0
  5  7  1  0  0  0  0
  6  8  1  0  0  0  0
  7  9  2  0  0  0  0
  8 16  2  0  0  0  0
  9 16  1  0  0  0  0
 10 11  1  0  0  0  0
 10 17  1  0  0  0  0
 11 17  1  0  0  0  0
 12 14  2  0  0  0  0
 12 15  1  0  0  0  0
 13 16  1  0  0  0  0
 15 17  1  0  0  0  0
  2 18  1  0  0  0  0
  4 19  1  0  0  0  0
  5 20  1  0  0  0  0
  6 21  1  0  0  0  0
  7 22  1  0  0  0  0
  8 23  1  0  0  0  0
  9 24  1  0  0  0  0
 10 25  1  0  0  0  0
 10 26  1  0  0  0  0
 11 27  1  0  0  0  0
 11 28  1  0  0  0  0
 12 29  1  0  0  0  0
 17 30  1  0  0  0  0
M  END
$$$$
