CT7_A_401
          05071912473D 1   1.00000     0.00000     0
            
 32 34  0  0  0  0            999 V2000
   -0.7498   26.0155    9.3899 Cl  0  0  0  0  0  0  0  0  0  0  0  0
    7.0327   23.8842    7.5056 S   0  0  0  0  0  0  0  0  0  0  0  0
    7.5971   23.4666    6.2048 O   0  0  0  0  0  0  0  0  0  0  0  0
    8.0762   24.4581    8.3209 O   0  0  0  0  0  0  0  0  0  0  0  0
    1.5801   30.4476    6.8929 N   0  0  0  0  0  0  0  0  0  0  0  0
   -0.5634   28.4211    8.7489 N   0  0  0  0  0  0  0  0  0  0  0  0
    2.9377   27.9635    6.6562 N   0  0  0  0  0  0  0  0  0  0  0  0
    1.1809   29.3016    7.3960 N   0  0  0  0  0  0  0  0  0  0  0  0
    6.4170   22.3189    8.1517 C   0  0  0  0  0  0  0  0  0  0  0  0
    0.6656   31.4091    7.2475 C   0  0  0  0  0  0  0  0  0  0  0  0
   -0.3461   30.7888    7.9914 C   0  0  0  0  0  0  0  0  0  0  0  0
    5.6403   25.6028    5.9469 C   0  0  0  0  0  0  0  0  0  0  0  0
    5.0504   25.4918    8.3627 C   0  0  0  0  0  0  0  0  0  0  0  0
    4.6620   26.5553    5.7383 C   0  0  0  0  0  0  0  0  0  0  0  0
    4.0757   26.4412    8.1402 C   0  0  0  0  0  0  0  0  0  0  0  0
    1.1527   26.9908    7.9500 C   0  0  0  0  0  0  0  0  0  0  0  0
   -0.0414   27.1858    8.6578 C   0  0  0  0  0  0  0  0  0  0  0  0
    5.7882   25.0671    7.2427 C   0  0  0  0  0  0  0  0  0  0  0  0
    0.0281   29.4642    8.0727 C   0  0  0  0  0  0  0  0  0  0  0  0
    1.7849   28.0884    7.3542 C   0  0  0  0  0  0  0  0  0  0  0  0
    3.8724   26.9751    6.8532 C   0  0  0  0  0  0  0  0  0  0  0  0
    3.1233   28.6407    5.9441 H   0  0  0  0  0  0  0  0  0  0  0  0
    6.0016   22.4689    9.0488 H   0  0  0  0  0  0  0  0  0  0  0  0
    5.7323   21.9461    7.5255 H   0  0  0  0  0  0  0  0  0  0  0  0
    7.1754   21.6730    8.2393 H   0  0  0  0  0  0  0  0  0  0  0  0
    0.7137   32.3806    7.0155 H   0  0  0  0  0  0  0  0  0  0  0  0
   -1.1633   31.2147    8.3797 H   0  0  0  0  0  0  0  0  0  0  0  0
    6.2292   25.3006    5.1974 H   0  0  0  0  0  0  0  0  0  0  0  0
    5.2245   25.1231    9.2758 H   0  0  0  0  0  0  0  0  0  0  0  0
    4.5098   26.9419    4.8287 H   0  0  0  0  0  0  0  0  0  0  0  0
    3.5070   26.7539    8.9010 H   0  0  0  0  0  0  0  0  0  0  0  0
    1.5491   26.0761    7.8714 H   0  0  0  0  0  0  0  0  0  0  0  0
  1 17  1  0  0  0  0
  2  3  2  0  0  0  0
  2  4  2  0  0  0  0
  2  9  1  0  0  0  0
  2 18  1  0  0  0  0
  5  8  1  0  0  0  0
  5 10  2  0  0  0  0
  6 17  2  0  0  0  0
  6 19  1  0  0  0  0
  7 20  1  0  0  0  0
  7 21  1  0  0  0  0
  8 19  1  0  0  0  0
  8 20  1  0  0  0  0
 10 11  1  0  0  0  0
 11 19  2  0  0  0  0
 12 14  1  0  0  0  0
 12 18  2  0  0  0  0
 13 15  2  0  0  0  0
 13 18  1  0  0  0  0
 14 21  2  0  0  0  0
 15 21  1  0  0  0  0
 16 17  1  0  0  0  0
 16 20  2  0  0  0  0
  7 22  1  0  0  0  0
  9 23  1  0  0  0  0
  9 24  1  0  0  0  0
  9 25  1  0  0  0  0
 10 26  1  0  0  0  0
 11 27  1  0  0  0  0
 12 28  1  0  0  0  0
 13 29  1  0  0  0  0
 14 30  1  0  0  0  0
 15 31  1  0  0  0  0
 16 32  1  0  0  0  0
M  END
$$$$
