CK9_X_500
          05071912473D 1   1.00000     0.00000     0
            
 53 55  0  0  0  0            999 V2000
   -0.3239   27.6546   12.2209 O   0  0  0  0  0  0  0  0  0  0  0  0
    3.5100   24.7826    7.6939 O   0  0  0  0  0  0  0  0  0  0  0  0
    1.6700   30.4495    6.6843 N   0  0  0  0  0  0  0  0  0  0  0  0
    3.6505   28.1411    6.9911 N   0  0  0  0  0  0  0  0  0  0  0  0
    2.0815   27.0972    8.2280 N   0  0  0  0  0  0  0  0  0  0  0  0
    0.0076   28.0564    8.7240 N   0  0  0  0  0  0  0  0  0  0  0  0
    0.5936   25.9799    9.5755 N   0  0  0  0  0  0  0  0  0  0  0  0
   -0.3220   30.3078    7.7044 N   0  0  0  0  0  0  0  0  0  0  0  0
   -1.6546   23.5610    9.3154 C   0  0  0  0  0  0  0  0  0  0  0  0
   -1.5900   31.0047    9.6810 C   0  0  0  0  0  0  0  0  0  0  0  0
   -2.8374   29.6212    8.0311 C   0  0  0  0  0  0  0  0  0  0  0  0
    0.5399   31.0732    6.9182 C   0  0  0  0  0  0  0  0  0  0  0  0
   -1.1544   27.0739   11.2107 C   0  0  0  0  0  0  0  0  0  0  0  0
    4.6250   27.2638    7.1518 C   0  0  0  0  0  0  0  0  0  0  0  0
   -1.7140   25.0890    9.5829 C   0  0  0  0  0  0  0  0  0  0  0  0
    5.1093   23.9601    4.4066 C   0  0  0  0  0  0  0  0  0  0  0  0
    5.6994   25.2206    4.0959 C   0  0  0  0  0  0  0  0  0  0  0  0
    4.3699   23.7935    5.6195 C   0  0  0  0  0  0  0  0  0  0  0  0
    5.5522   26.3147    4.9953 C   0  0  0  0  0  0  0  0  0  0  0  0
    0.8744   27.0178    8.8589 C   0  0  0  0  0  0  0  0  0  0  0  0
    2.5250   28.1815    7.4715 C   0  0  0  0  0  0  0  0  0  0  0  0
    0.3582   29.1442    7.9614 C   0  0  0  0  0  0  0  0  0  0  0  0
   -1.7036   30.6575    8.2077 C   0  0  0  0  0  0  0  0  0  0  0  0
    4.2217   24.8905    6.5188 C   0  0  0  0  0  0  0  0  0  0  0  0
   -0.6112   25.7982   10.4588 C   0  0  1  0  0  0  0  0  0  0  0  0
    1.6402   29.2544    7.3027 C   0  0  0  0  0  0  0  0  0  0  0  0
    4.8309   26.1328    6.2010 C   0  0  0  0  0  0  0  0  0  0  0  0
   -0.7845   28.4502   12.6143 H   0  0  0  0  0  0  0  0  0  0  0  0
    3.4259   25.5720    8.3019 H   0  0  0  0  0  0  0  0  0  0  0  0
    3.8682   28.8980    6.3748 H   0  0  0  0  0  0  0  0  0  0  0  0
    1.2428   25.2201    9.5394 H   0  0  0  0  0  0  0  0  0  0  0  0
   -2.4308   23.2920    8.7452 H   0  0  0  0  0  0  0  0  0  0  0  0
   -0.8015   23.3380    8.8438 H   0  0  0  0  0  0  0  0  0  0  0  0
   -1.6933   23.0686   10.1849 H   0  0  0  0  0  0  0  0  0  0  0  0
   -2.4936   31.2404   10.0386 H   0  0  0  0  0  0  0  0  0  0  0  0
   -1.2280   30.2184   10.1818 H   0  0  0  0  0  0  0  0  0  0  0  0
   -0.9734   31.7839    9.7932 H   0  0  0  0  0  0  0  0  0  0  0  0
   -3.6871   29.9892    8.4088 H   0  0  0  0  0  0  0  0  0  0  0  0
   -2.9620   29.4260    7.0583 H   0  0  0  0  0  0  0  0  0  0  0  0
   -2.5964   28.7783    8.5122 H   0  0  0  0  0  0  0  0  0  0  0  0
    0.3224   31.9867    6.5746 H   0  0  0  0  0  0  0  0  0  0  0  0
   -1.3224   27.7782   10.5210 H   0  0  0  0  0  0  0  0  0  0  0  0
   -2.0187   26.8194   11.6446 H   0  0  0  0  0  0  0  0  0  0  0  0
    4.4856   26.8515    8.0522 H   0  0  0  0  0  0  0  0  0  0  0  0
    5.4767   27.7877    7.1533 H   0  0  0  0  0  0  0  0  0  0  0  0
   -2.5909   25.2665   10.0297 H   0  0  0  0  0  0  0  0  0  0  0  0
   -1.6990   25.5360    8.6885 H   0  0  0  0  0  0  0  0  0  0  0  0
    5.2127   23.1913    3.7754 H   0  0  0  0  0  0  0  0  0  0  0  0
    6.2160   25.3361    3.2475 H   0  0  0  0  0  0  0  0  0  0  0  0
    3.9573   22.9089    5.8367 H   0  0  0  0  0  0  0  0  0  0  0  0
    5.9546   27.2039    4.7777 H   0  0  0  0  0  0  0  0  0  0  0  0
   -1.9885   31.4890    7.7308 H   0  0  0  0  0  0  0  0  0  0  0  0
   -0.3472   25.1432   11.1667 H   0  0  0  0  0  0  0  0  0  0  0  0
  1 13  1  0  0  0  0
  2 24  1  0  0  0  0
  3 12  2  0  0  0  0
  3 26  1  0  0  0  0
  4 14  1  0  0  0  0
  4 21  1  0  0  0  0
  5 20  2  0  0  0  0
  5 21  1  0  0  0  0
  6 20  1  0  0  0  0
  6 22  2  0  0  0  0
  7 20  1  0  0  0  0
  7 25  1  0  0  0  0
  8 12  1  0  0  0  0
  8 22  1  0  0  0  0
  8 23  1  0  0  0  0
  9 15  1  0  0  0  0
 10 23  1  0  0  0  0
 11 23  1  0  0  0  0
 13 25  1  0  0  0  0
 14 27  1  0  0  0  0
 15 25  1  0  0  0  0
 16 17  2  0  0  0  0
 16 18  1  0  0  0  0
 17 19  1  0  0  0  0
 18 24  2  0  0  0  0
 19 27  2  0  0  0  0
 21 26  2  0  0  0  0
 22 26  1  0  0  0  0
 24 27  1  0  0  0  0
  1 28  1  0  0  0  0
  2 29  1  0  0  0  0
  4 30  1  0  0  0  0
  7 31  1  0  0  0  0
  9 32  1  0  0  0  0
  9 33  1  0  0  0  0
  9 34  1  0  0  0  0
 10 35  1  0  0  0  0
 10 36  1  0  0  0  0
 10 37  1  0  0  0  0
 11 38  1  0  0  0  0
 11 39  1  0  0  0  0
 11 40  1  0  0  0  0
 12 41  1  0  0  0  0
 13 42  1  0  0  0  0
 13 43  1  0  0  0  0
 14 44  1  0  0  0  0
 14 45  1  0  0  0  0
 15 46  1  0  0  0  0
 15 47  1  0  0  0  0
 16 48  1  0  0  0  0
 17 49  1  0  0  0  0
 18 50  1  0  0  0  0
 19 51  1  0  0  0  0
 23 52  1  0  0  0  0
 25 53  1  0  0  0  0
M  END
$$$$
