D05_A_300
          05071912473D 1   1.00000     0.00000     0
            
 45 48  0  0  0  0            999 V2000
   -1.1434   22.6968   13.3522 Cl  0  0  0  0  0  0  0  0  0  0  0  0
    0.0930   27.8881   11.7407 Cl  0  0  0  0  0  0  0  0  0  0  0  0
   -0.4293   23.8603    8.1617 Cl  0  0  0  0  0  0  0  0  0  0  0  0
    1.8692   29.9301    6.2841 O   0  0  0  0  0  0  0  0  0  0  0  0
    5.1950   23.2833    2.6010 O   0  0  0  0  0  0  0  0  0  0  0  0
    4.2172   21.9411    4.7743 O   0  0  0  0  0  0  0  0  0  0  0  0
   -1.0175   27.9048    8.8140 N   0  0  0  0  0  0  0  0  0  0  0  0
    3.1372   28.1272    6.8246 N   0  0  0  0  0  0  0  0  0  0  0  0
    2.2103   26.4447    8.2662 N   0  0  0  0  0  0  0  0  0  0  0  0
   -0.0984   26.9051    9.0542 N   0  0  0  0  0  0  0  0  0  0  0  0
   -0.9221   31.1679    8.5491 C   0  0  0  0  0  0  0  0  0  0  0  0
   -1.2501   30.0087    7.6103 C   0  0  0  0  0  0  0  0  0  0  0  0
    5.4940   25.3037    3.9102 C   0  0  0  0  0  0  0  0  0  0  0  0
    5.3114   25.9867    5.1245 C   0  0  0  0  0  0  0  0  0  0  0  0
   -0.5290   25.2833   12.3977 C   0  0  0  0  0  0  0  0  0  0  0  0
   -0.7019   23.5500   10.7647 C   0  0  0  0  0  0  0  0  0  0  0  0
    4.5100   26.1517    7.5019 C   0  0  0  0  0  0  0  0  0  0  0  0
    4.3963   23.9696    6.1650 C   0  0  0  0  0  0  0  0  0  0  0  0
    1.9771   28.8444    6.8609 C   0  0  0  0  0  0  0  0  0  0  0  0
    3.2099   26.9488    7.5130 C   0  0  0  0  0  0  0  0  0  0  0  0
   -0.7493   23.9222   12.1048 C   0  0  0  0  0  0  0  0  0  0  0  0
   -0.2831   26.2244   11.3671 C   0  0  0  0  0  0  0  0  0  0  0  0
   -0.4629   24.4964    9.7547 C   0  0  0  0  0  0  0  0  0  0  0  0
    1.0583   27.1571    8.3210 C   0  0  0  0  0  0  0  0  0  0  0  0
    5.1094   23.9471    3.8180 C   0  0  0  0  0  0  0  0  0  0  0  0
    4.5816   23.2755    4.9339 C   0  0  0  0  0  0  0  0  0  0  0  0
   -0.4505   28.7895    7.9638 C   0  0  0  0  0  0  0  0  0  0  0  0
   -0.2528   25.8602   10.0291 C   0  0  0  0  0  0  0  0  0  0  0  0
    4.7497   25.3400    6.2386 C   0  0  0  0  0  0  0  0  0  0  0  0
    0.9104   28.3805    7.6147 C   0  0  0  0  0  0  0  0  0  0  0  0
    4.9231   22.3232    2.5350 H   0  0  0  0  0  0  0  0  0  0  0  0
    4.3615   21.4850    3.8962 H   0  0  0  0  0  0  0  0  0  0  0  0
    3.9226   28.4589    6.3020 H   0  0  0  0  0  0  0  0  0  0  0  0
   -1.4661   31.9674    8.2943 H   0  0  0  0  0  0  0  0  0  0  0  0
   -1.1359   30.9055    9.4901 H   0  0  0  0  0  0  0  0  0  0  0  0
    0.0503   31.3899    8.4776 H   0  0  0  0  0  0  0  0  0  0  0  0
   -1.0378   30.2783    6.6710 H   0  0  0  0  0  0  0  0  0  0  0  0
   -2.2240   29.7939    7.6835 H   0  0  0  0  0  0  0  0  0  0  0  0
    5.8912   25.7719    3.1209 H   0  0  0  0  0  0  0  0  0  0  0  0
    5.5849   26.9458    5.1969 H   0  0  0  0  0  0  0  0  0  0  0  0
   -0.5465   25.5901   13.3493 H   0  0  0  0  0  0  0  0  0  0  0  0
   -0.8404   22.5913   10.5163 H   0  0  0  0  0  0  0  0  0  0  0  0
    4.4952   25.5216    8.2783 H   0  0  0  0  0  0  0  0  0  0  0  0
    5.2694   26.7936    7.6080 H   0  0  0  0  0  0  0  0  0  0  0  0
    4.0231   23.4974    6.9635 H   0  0  0  0  0  0  0  0  0  0  0  0
  1 21  1  0  0  0  0
  2 22  1  0  0  0  0
  3 23  1  0  0  0  0
  4 19  2  0  0  0  0
  5 25  1  0  0  0  0
  6 26  1  0  0  0  0
  7 10  1  0  0  0  0
  7 27  2  0  0  0  0
  8 19  1  0  0  0  0
  8 20  1  0  0  0  0
  9 20  2  0  0  0  0
  9 24  1  0  0  0  0
 10 24  1  0  0  0  0
 10 28  1  0  0  0  0
 11 12  1  0  0  0  0
 12 27  1  0  0  0  0
 13 14  1  0  0  0  0
 13 25  2  0  0  0  0
 14 29  2  0  0  0  0
 15 21  2  0  0  0  0
 15 22  1  0  0  0  0
 16 21  1  0  0  0  0
 16 23  2  0  0  0  0
 17 20  1  0  0  0  0
 17 29  1  0  0  0  0
 18 26  2  0  0  0  0
 18 29  1  0  0  0  0
 19 30  1  0  0  0  0
 22 28  2  0  0  0  0
 23 28  1  0  0  0  0
 24 30  2  0  0  0  0
 25 26  1  0  0  0  0
 27 30  1  0  0  0  0
  5 31  1  0  0  0  0
  6 32  1  0  0  0  0
  8 33  1  0  0  0  0
 11 34  1  0  0  0  0
 11 35  1  0  0  0  0
 11 36  1  0  0  0  0
 12 37  1  0  0  0  0
 12 38  1  0  0  0  0
 13 39  1  0  0  0  0
 14 40  1  0  0  0  0
 15 41  1  0  0  0  0
 16 42  1  0  0  0  0
 17 43  1  0  0  0  0
 17 44  1  0  0  0  0
 18 45  1  0  0  0  0
M  END
$$$$
