RYU_A_1299
          05071912473D 1   1.00000     0.00000     0
            
 52 56  0  0  0  0            999 V2000
   -2.3943   27.4544   11.3660 S   0  0  0  0  0  0  0  0  0  0  0  0
   -1.3606   27.9543   12.6840 O   0  0  0  0  0  0  0  0  0  0  0  0
   -3.9732   28.1460   11.2470 O   0  0  0  0  0  0  0  0  0  0  0  0
    2.1152   30.4880    6.1863 O   0  0  0  0  0  0  0  0  0  0  0  0
    0.3986   22.4418   11.7543 O   0  0  0  0  0  0  0  0  0  0  0  0
    1.0089   25.5648    7.6695 O   0  0  0  0  0  0  0  0  0  0  0  0
    0.3105   31.0654    7.3477 N   0  0  0  0  0  0  0  0  0  0  0  0
    3.0539   27.8331    6.3163 N   0  0  0  0  0  0  0  0  0  0  0  0
   -2.3873   25.6870   11.5516 N   0  0  0  0  0  0  0  0  0  0  0  0
    1.9574   26.6302    9.4810 C   0  0  0  0  0  0  0  0  0  0  0  0
   -2.2178   25.0282   12.8665 C   0  0  0  0  0  0  0  0  0  0  0  0
   -2.2564   24.8194   10.3727 C   0  0  0  0  0  0  0  0  0  0  0  0
    5.7131   25.0838    6.3528 C   0  0  0  0  0  0  0  0  0  0  0  0
    5.2747   24.4600    7.5902 C   0  0  0  0  0  0  0  0  0  0  0  0
   -0.9388   24.1995   12.9263 C   0  0  0  0  0  0  0  0  0  0  0  0
   -0.9601   24.0318   10.4088 C   0  0  0  0  0  0  0  0  0  0  0  0
    5.0112   26.2355    5.8079 C   0  0  0  0  0  0  0  0  0  0  0  0
   -2.2074   29.7409    9.8986 C   0  0  0  0  0  0  0  0  0  0  0  0
   -1.5909   30.7236    9.0193 C   0  0  0  0  0  0  0  0  0  0  0  0
    3.9985   24.7897    8.2013 C   0  0  0  0  0  0  0  0  0  0  0  0
   -0.8311   27.8238    8.9629 C   0  0  0  0  0  0  0  0  0  0  0  0
    1.1725   30.1596    6.9001 C   0  0  0  0  0  0  0  0  0  0  0  0
   -1.7588   28.3564    9.9409 C   0  0  0  0  0  0  0  0  0  0  0  0
   -0.7677   23.2725   11.7198 C   0  0  0  0  0  0  0  0  0  0  0  0
   -0.5130   30.2598    8.1680 C   0  0  0  0  0  0  0  0  0  0  0  0
    3.8362   26.6773    6.5346 C   0  0  0  0  0  0  0  0  0  0  0  0
    1.9699   27.6508    7.2057 C   0  0  0  0  0  0  0  0  0  0  0  0
   -0.1684   28.8494    8.1725 C   0  0  0  0  0  0  0  0  0  0  0  0
    3.2784   25.9027    7.6191 C   0  0  0  0  0  0  0  0  0  0  0  0
    1.0018   28.7205    7.3318 C   0  0  0  0  0  0  0  0  0  0  0  0
    1.9791   26.4246    7.9910 C   0  0  2  0  0  0  0  0  0  0  0  0
    0.4278   21.8739   10.9318 H   0  0  0  0  0  0  0  0  0  0  0  0
    1.0092   25.4165    6.6806 H   0  0  0  0  0  0  0  0  0  0  0  0
    2.6790   27.2725    9.7394 H   0  0  0  0  0  0  0  0  0  0  0  0
    1.0690   26.9997    9.7536 H   0  0  0  0  0  0  0  0  0  0  0  0
    2.1097   25.7552    9.9405 H   0  0  0  0  0  0  0  0  0  0  0  0
   -3.0003   24.4275   13.0304 H   0  0  0  0  0  0  0  0  0  0  0  0
   -2.1817   25.7303   13.5777 H   0  0  0  0  0  0  0  0  0  0  0  0
   -2.2708   25.3854    9.5485 H   0  0  0  0  0  0  0  0  0  0  0  0
   -3.0252   24.1803   10.3517 H   0  0  0  0  0  0  0  0  0  0  0  0
    6.5079   24.7164    5.8697 H   0  0  0  0  0  0  0  0  0  0  0  0
    5.8669   23.7864    8.0325 H   0  0  0  0  0  0  0  0  0  0  0  0
   -0.9594   23.6416   13.7560 H   0  0  0  0  0  0  0  0  0  0  0  0
   -0.1573   24.8223   12.9626 H   0  0  0  0  0  0  0  0  0  0  0  0
   -0.1966   24.6670   10.2920 H   0  0  0  0  0  0  0  0  0  0  0  0
   -0.9644   23.3739    9.6558 H   0  0  0  0  0  0  0  0  0  0  0  0
    5.3219   26.6975    4.9772 H   0  0  0  0  0  0  0  0  0  0  0  0
   -2.9611   30.0251   10.4912 H   0  0  0  0  0  0  0  0  0  0  0  0
   -1.8970   31.6754    9.0031 H   0  0  0  0  0  0  0  0  0  0  0  0
    3.6377   24.2768    8.9802 H   0  0  0  0  0  0  0  0  0  0  0  0
   -0.6627   26.8454    8.8431 H   0  0  0  0  0  0  0  0  0  0  0  0
   -1.5394   22.6384   11.7682 H   0  0  0  0  0  0  0  0  0  0  0  0
  1  2  2  0  0  0  0
  1  3  2  0  0  0  0
  1  9  1  0  0  0  0
  1 23  1  0  0  0  0
  4 22  2  0  0  0  0
  5 24  1  0  0  0  0
  6 31  1  0  0  0  0
  7 22  1  0  0  0  0
  7 25  2  0  0  0  0
  8 26  1  0  0  0  0
  8 27  2  0  0  0  0
  9 11  1  0  0  0  0
  9 12  1  0  0  0  0
 10 31  1  0  0  0  0
 11 15  1  0  0  0  0
 12 16  1  0  0  0  0
 13 14  2  0  0  0  0
 13 17  1  0  0  0  0
 14 20  1  0  0  0  0
 15 24  1  0  0  0  0
 16 24  1  0  0  0  0
 17 26  2  0  0  0  0
 18 19  2  0  0  0  0
 18 23  1  0  0  0  0
 19 25  1  0  0  0  0
 20 29  2  0  0  0  0
 21 23  2  0  0  0  0
 21 28  1  0  0  0  0
 22 30  1  0  0  0  0
 25 28  1  0  0  0  0
 26 29  1  0  0  0  0
 27 30  1  0  0  0  0
 27 31  1  0  0  0  0
 28 30  2  0  0  0  0
 29 31  1  0  0  0  0
  5 32  1  0  0  0  0
  6 33  1  0  0  0  0
 10 34  1  0  0  0  0
 10 35  1  0  0  0  0
 10 36  1  0  0  0  0
 11 37  1  0  0  0  0
 11 38  1  0  0  0  0
 12 39  1  0  0  0  0
 12 40  1  0  0  0  0
 13 41  1  0  0  0  0
 14 42  1  0  0  0  0
 15 43  1  0  0  0  0
 15 44  1  0  0  0  0
 16 45  1  0  0  0  0
 16 46  1  0  0  0  0
 17 47  1  0  0  0  0
 18 48  1  0  0  0  0
 19 49  1  0  0  0  0
 20 50  1  0  0  0  0
 21 51  1  0  0  0  0
 24 52  1  0  0  0  0
M  END
$$$$
