CT6_A_1297
          05071912473D 1   1.00000     0.00000     0
            
 38 41  0  0  0  0            999 V2000
   -1.0769   22.2200    9.4696 Br  0  0  0  0  0  0  0  0  0  0  0  0
    1.4556   30.5401    6.9704 N   0  0  0  0  0  0  0  0  0  0  0  0
    5.0985   24.1955    4.8691 N   0  0  0  0  0  0  0  0  0  0  0  0
    3.2256   28.2367    7.0486 N   0  0  0  0  0  0  0  0  0  0  0  0
   -0.3920   28.5181    9.1049 N   0  0  0  0  0  0  0  0  0  0  0  0
    1.2181   29.4229    7.6370 N   0  0  0  0  0  0  0  0  0  0  0  0
    0.4063   31.3949    7.2033 C   0  0  0  0  0  0  0  0  0  0  0  0
    4.6927   25.4010    4.3847 C   0  0  0  0  0  0  0  0  0  0  0  0
    5.2832   24.0136    6.2205 C   0  0  0  0  0  0  0  0  0  0  0  0
    4.3321   27.4356    7.5825 C   0  0  0  0  0  0  0  0  0  0  0  0
   -0.9931   25.4148   12.1994 C   0  0  0  0  0  0  0  0  0  0  0  0
   -0.4744   30.7512    8.0569 C   0  0  0  0  0  0  0  0  0  0  0  0
    4.4543   26.4677    5.2569 C   0  0  0  0  0  0  0  0  0  0  0  0
    5.0430   25.0593    7.1117 C   0  0  0  0  0  0  0  0  0  0  0  0
   -1.1528   24.1375   11.6217 C   0  0  0  0  0  0  0  0  0  0  0  0
   -0.4948   26.4780   11.4236 C   0  0  0  0  0  0  0  0  0  0  0  0
    1.5473   27.2628    8.5459 C   0  0  0  0  0  0  0  0  0  0  0  0
   -0.3548   24.9835    9.4909 C   0  0  0  0  0  0  0  0  0  0  0  0
   -0.8239   23.9263   10.2638 C   0  0  0  0  0  0  0  0  0  0  0  0
    1.9952   28.3248    7.7550 C   0  0  0  0  0  0  0  0  0  0  0  0
    0.0798   29.5342    8.3182 C   0  0  0  0  0  0  0  0  0  0  0  0
    0.3239   27.3858    9.2245 C   0  0  0  0  0  0  0  0  0  0  0  0
    4.6212   26.2898    6.6256 C   0  0  0  0  0  0  0  0  0  0  0  0
   -0.1820   26.2658   10.0651 C   0  0  0  0  0  0  0  0  0  0  0  0
    3.3374   28.7237    6.1824 H   0  0  0  0  0  0  0  0  0  0  0  0
    0.2979   32.3144    6.8255 H   0  0  0  0  0  0  0  0  0  0  0  0
    4.5645   25.5245    3.4007 H   0  0  0  0  0  0  0  0  0  0  0  0
    5.5912   23.1270    6.5655 H   0  0  0  0  0  0  0  0  0  0  0  0
    4.0789   27.0689    8.4778 H   0  0  0  0  0  0  0  0  0  0  0  0
    5.1465   28.0086    7.6752 H   0  0  0  0  0  0  0  0  0  0  0  0
   -1.2336   25.5644   13.1584 H   0  0  0  0  0  0  0  0  0  0  0  0
   -1.3400   31.1070    8.4093 H   0  0  0  0  0  0  0  0  0  0  0  0
    4.1649   27.3549    4.8976 H   0  0  0  0  0  0  0  0  0  0  0  0
    5.1737   24.9239    8.0938 H   0  0  0  0  0  0  0  0  0  0  0  0
   -1.4995   23.3798   12.1746 H   0  0  0  0  0  0  0  0  0  0  0  0
   -0.3631   27.3803   11.8341 H   0  0  0  0  0  0  0  0  0  0  0  0
    2.0904   26.4270    8.6273 H   0  0  0  0  0  0  0  0  0  0  0  0
   -0.1386   24.8370    8.5256 H   0  0  0  0  0  0  0  0  0  0  0  0
  1 19  1  0  0  0  0
  2  6  1  0  0  0  0
  2  7  2  0  0  0  0
  3  8  2  0  0  0  0
  3  9  1  0  0  0  0
  4 10  1  0  0  0  0
  4 20  1  0  0  0  0
  5 21  1  0  0  0  0
  5 22  2  0  0  0  0
  6 20  1  0  0  0  0
  6 21  1  0  0  0  0
  7 12  1  0  0  0  0
  8 13  1  0  0  0  0
  9 14  2  0  0  0  0
 10 23  1  0  0  0  0
 11 15  2  0  0  0  0
 11 16  1  0  0  0  0
 12 21  2  0  0  0  0
 13 23  2  0  0  0  0
 14 23  1  0  0  0  0
 15 19  1  0  0  0  0
 16 24  2  0  0  0  0
 17 20  2  0  0  0  0
 17 22  1  0  0  0  0
 18 19  2  0  0  0  0
 18 24  1  0  0  0  0
 22 24  1  0  0  0  0
  4 25  1  0  0  0  0
  7 26  1  0  0  0  0
  8 27  1  0  0  0  0
  9 28  1  0  0  0  0
 10 29  1  0  0  0  0
 10 30  1  0  0  0  0
 11 31  1  0  0  0  0
 12 32  1  0  0  0  0
 13 33  1  0  0  0  0
 14 34  1  0  0  0  0
 15 35  1  0  0  0  0
 16 36  1  0  0  0  0
 17 37  1  0  0  0  0
 18 38  1  0  0  0  0
M  END
$$$$
