CT8_A_1299
          05071912473D 1   1.00000     0.00000     0
            
 37 40  0  0  0  0            999 V2000
   -1.0536   22.3517    9.5928 Br  0  0  0  0  0  0  0  0  0  0  0  0
    1.5274   30.5874    6.8196 N   0  0  0  0  0  0  0  0  0  0  0  0
    5.1602   24.3235    4.6773 N   0  0  0  0  0  0  0  0  0  0  0  0
   -0.3590   30.8388    7.9046 N   0  0  0  0  0  0  0  0  0  0  0  0
    3.2456   28.2709    6.8986 N   0  0  0  0  0  0  0  0  0  0  0  0
   -0.3346   28.6579    8.9656 N   0  0  0  0  0  0  0  0  0  0  0  0
    1.2846   29.4972    7.5046 N   0  0  0  0  0  0  0  0  0  0  0  0
    0.5163   31.4607    7.0738 C   0  0  0  0  0  0  0  0  0  0  0  0
    4.9473   25.5781    4.2157 C   0  0  0  0  0  0  0  0  0  0  0  0
    5.1324   24.0572    6.0177 C   0  0  0  0  0  0  0  0  0  0  0  0
    4.3326   27.4660    7.4389 C   0  0  0  0  0  0  0  0  0  0  0  0
   -1.1347   25.6939   12.1119 C   0  0  0  0  0  0  0  0  0  0  0  0
    4.6881   26.6105    5.1051 C   0  0  0  0  0  0  0  0  0  0  0  0
    4.8573   25.0689    6.9308 C   0  0  0  0  0  0  0  0  0  0  0  0
   -1.2635   24.3888   11.6047 C   0  0  0  0  0  0  0  0  0  0  0  0
   -0.6023   26.7064   11.2959 C   0  0  0  0  0  0  0  0  0  0  0  0
    1.5478   27.3017    8.3897 C   0  0  0  0  0  0  0  0  0  0  0  0
   -0.3511   25.1067    9.4766 C   0  0  0  0  0  0  0  0  0  0  0  0
    0.1438   29.6302    8.1522 C   0  0  0  0  0  0  0  0  0  0  0  0
   -0.8663   24.1022   10.2881 C   0  0  0  0  0  0  0  0  0  0  0  0
    2.0221   28.3682    7.5926 C   0  0  0  0  0  0  0  0  0  0  0  0
    0.3399   27.4791    9.0860 C   0  0  0  0  0  0  0  0  0  0  0  0
    4.6403   26.3525    6.4696 C   0  0  0  0  0  0  0  0  0  0  0  0
   -0.2026   26.4027    9.9697 C   0  0  0  0  0  0  0  0  0  0  0  0
    3.3674   28.7560    6.0327 H   0  0  0  0  0  0  0  0  0  0  0  0
    0.4329   32.3902    6.7146 H   0  0  0  0  0  0  0  0  0  0  0  0
    4.9771   25.7608    3.2330 H   0  0  0  0  0  0  0  0  0  0  0  0
    5.3110   23.1289    6.3436 H   0  0  0  0  0  0  0  0  0  0  0  0
    4.0589   27.0791    8.3194 H   0  0  0  0  0  0  0  0  0  0  0  0
    5.1440   28.0370    7.5635 H   0  0  0  0  0  0  0  0  0  0  0  0
   -1.4202   25.9003   13.0478 H   0  0  0  0  0  0  0  0  0  0  0  0
    4.5359   27.5385    4.7649 H   0  0  0  0  0  0  0  0  0  0  0  0
    4.8171   24.8696    7.9099 H   0  0  0  0  0  0  0  0  0  0  0  0
   -1.6385   23.6635   12.1821 H   0  0  0  0  0  0  0  0  0  0  0  0
   -0.5058   27.6370   11.6489 H   0  0  0  0  0  0  0  0  0  0  0  0
    2.0579   26.4441    8.4564 H   0  0  0  0  0  0  0  0  0  0  0  0
   -0.0857   24.8989    8.5351 H   0  0  0  0  0  0  0  0  0  0  0  0
  1 20  1  0  0  0  0
  2  7  1  0  0  0  0
  2  8  2  0  0  0  0
  3  9  2  0  0  0  0
  3 10  1  0  0  0  0
  4  8  1  0  0  0  0
  4 19  2  0  0  0  0
  5 11  1  0  0  0  0
  5 21  1  0  0  0  0
  6 19  1  0  0  0  0
  6 22  2  0  0  0  0
  7 19  1  0  0  0  0
  7 21  1  0  0  0  0
  9 13  1  0  0  0  0
 10 14  2  0  0  0  0
 11 23  1  0  0  0  0
 12 15  2  0  0  0  0
 12 16  1  0  0  0  0
 13 23  2  0  0  0  0
 14 23  1  0  0  0  0
 15 20  1  0  0  0  0
 16 24  2  0  0  0  0
 17 21  2  0  0  0  0
 17 22  1  0  0  0  0
 18 20  2  0  0  0  0
 18 24  1  0  0  0  0
 22 24  1  0  0  0  0
  5 25  1  0  0  0  0
  8 26  1  0  0  0  0
  9 27  1  0  0  0  0
 10 28  1  0  0  0  0
 11 29  1  0  0  0  0
 11 30  1  0  0  0  0
 12 31  1  0  0  0  0
 13 32  1  0  0  0  0
 14 33  1  0  0  0  0
 15 34  1  0  0  0  0
 16 35  1  0  0  0  0
 17 36  1  0  0  0  0
 18 37  1  0  0  0  0
M  END
$$$$
