DT1_A_1299
          05071912473D 1   1.00000     0.00000     0
            
 50 53  0  0  0  0            999 V2000
    6.8504   23.9273    7.5775 S   0  0  0  0  0  0  0  0  0  0  0  0
    7.9764   24.4591    8.3621 O   0  0  0  0  0  0  0  0  0  0  0  0
    7.3750   23.5787    6.2601 O   0  0  0  0  0  0  0  0  0  0  0  0
   -0.6878   26.5596    9.4755 O   0  0  0  0  0  0  0  0  0  0  0  0
    6.1994   22.6935    8.3709 N   0  0  0  0  0  0  0  0  0  0  0  0
    1.4890   30.6348    6.7813 N   0  0  0  0  0  0  0  0  0  0  0  0
   -0.3512   31.0683    7.9332 N   0  0  0  0  0  0  0  0  0  0  0  0
   -0.6225   28.8148    8.7860 N   0  0  0  0  0  0  0  0  0  0  0  0
    2.8687   28.0986    6.6269 N   0  0  0  0  0  0  0  0  0  0  0  0
    1.1101   29.5178    7.3756 N   0  0  0  0  0  0  0  0  0  0  0  0
   -0.4649   26.7387   10.8764 C   0  0  0  0  0  0  0  0  0  0  0  0
    0.6108   31.5946    7.1339 C   0  0  0  0  0  0  0  0  0  0  0  0
   -2.0939   23.4473   13.2563 C   0  0  0  0  0  0  0  0  0  0  0  0
   -1.9028   23.2113   11.7518 C   0  0  0  0  0  0  0  0  0  0  0  0
   -0.9301   24.2779   13.8023 C   0  0  0  0  0  0  0  0  0  0  0  0
    5.5176   25.6544    6.0018 C   0  0  0  0  0  0  0  0  0  0  0  0
    4.9199   25.5676    8.3847 C   0  0  0  0  0  0  0  0  0  0  0  0
   -1.8363   24.5538   11.0134 C   0  0  0  0  0  0  0  0  0  0  0  0
   -0.9058   25.6259   13.0826 C   0  0  0  0  0  0  0  0  0  0  0  0
    4.5664   26.6573    5.7692 C   0  0  0  0  0  0  0  0  0  0  0  0
    3.9843   26.5685    8.1409 C   0  0  0  0  0  0  0  0  0  0  0  0
    1.0905   27.2601    8.0525 C   0  0  0  0  0  0  0  0  0  0  0  0
    5.6833   25.1532    7.2869 C   0  0  0  0  0  0  0  0  0  0  0  0
   -0.0700   27.5539    8.7761 C   0  0  0  0  0  0  0  0  0  0  0  0
   -0.0130   29.7708    8.0666 C   0  0  0  0  0  0  0  0  0  0  0  0
    1.7232   28.3018    7.3603 C   0  0  0  0  0  0  0  0  0  0  0  0
    3.7931   27.1103    6.8510 C   0  0  0  0  0  0  0  0  0  0  0  0
   -0.6861   25.3925   11.5856 C   0  0  0  0  0  0  0  0  0  0  0  0
    5.4329   22.3258    7.8445 H   0  0  0  0  0  0  0  0  0  0  0  0
    6.8878   21.9798    8.5002 H   0  0  0  0  0  0  0  0  0  0  0  0
    3.0424   28.7241    5.8663 H   0  0  0  0  0  0  0  0  0  0  0  0
   -1.1056   27.4175   11.2351 H   0  0  0  0  0  0  0  0  0  0  0  0
    0.4725   27.0507   11.0309 H   0  0  0  0  0  0  0  0  0  0  0  0
    0.6608   32.5519    6.8490 H   0  0  0  0  0  0  0  0  0  0  0  0
   -2.1241   22.5668   13.7293 H   0  0  0  0  0  0  0  0  0  0  0  0
   -2.9521   23.9375   13.4092 H   0  0  0  0  0  0  0  0  0  0  0  0
   -2.6720   22.6779   11.4001 H   0  0  0  0  0  0  0  0  0  0  0  0
   -1.0518   22.7083   11.6012 H   0  0  0  0  0  0  0  0  0  0  0  0
   -0.0689   23.7957   13.6417 H   0  0  0  0  0  0  0  0  0  0  0  0
   -1.0527   24.4233   14.7840 H   0  0  0  0  0  0  0  0  0  0  0  0
    6.0729   25.3024    5.2483 H   0  0  0  0  0  0  0  0  0  0  0  0
    5.0400   25.1669    9.2930 H   0  0  0  0  0  0  0  0  0  0  0  0
   -2.6993   25.0444   11.1342 H   0  0  0  0  0  0  0  0  0  0  0  0
   -1.6787   24.3916   10.0393 H   0  0  0  0  0  0  0  0  0  0  0  0
   -0.1618   26.1862   13.4467 H   0  0  0  0  0  0  0  0  0  0  0  0
   -1.7769   26.0963   13.2236 H   0  0  0  0  0  0  0  0  0  0  0  0
    4.4411   27.0413    4.8544 H   0  0  0  0  0  0  0  0  0  0  0  0
    3.4322   26.9135    8.9000 H   0  0  0  0  0  0  0  0  0  0  0  0
    1.4592   26.3308    8.0296 H   0  0  0  0  0  0  0  0  0  0  0  0
    0.1536   24.8587   11.4851 H   0  0  0  0  0  0  0  0  0  0  0  0
  1  2  2  0  0  0  0
  1  3  2  0  0  0  0
  1  5  1  0  0  0  0
  1 23  1  0  0  0  0
  4 11  1  0  0  0  0
  4 24  1  0  0  0  0
  6 10  1  0  0  0  0
  6 12  2  0  0  0  0
  7 12  1  0  0  0  0
  7 25  2  0  0  0  0
  8 24  2  0  0  0  0
  8 25  1  0  0  0  0
  9 26  1  0  0  0  0
  9 27  1  0  0  0  0
 10 25  1  0  0  0  0
 10 26  1  0  0  0  0
 11 28  1  0  0  0  0
 13 14  1  0  0  0  0
 13 15  1  0  0  0  0
 14 18  1  0  0  0  0
 15 19  1  0  0  0  0
 16 20  1  0  0  0  0
 16 23  2  0  0  0  0
 17 21  2  0  0  0  0
 17 23  1  0  0  0  0
 18 28  1  0  0  0  0
 19 28  1  0  0  0  0
 20 27  2  0  0  0  0
 21 27  1  0  0  0  0
 22 24  1  0  0  0  0
 22 26  2  0  0  0  0
  5 29  1  0  0  0  0
  5 30  1  0  0  0  0
  9 31  1  0  0  0  0
 11 32  1  0  0  0  0
 11 33  1  0  0  0  0
 12 34  1  0  0  0  0
 13 35  1  0  0  0  0
 13 36  1  0  0  0  0
 14 37  1  0  0  0  0
 14 38  1  0  0  0  0
 15 39  1  0  0  0  0
 15 40  1  0  0  0  0
 16 41  1  0  0  0  0
 17 42  1  0  0  0  0
 18 43  1  0  0  0  0
 18 44  1  0  0  0  0
 19 45  1  0  0  0  0
 19 46  1  0  0  0  0
 20 47  1  0  0  0  0
 21 48  1  0  0  0  0
 22 49  1  0  0  0  0
 28 50  1  0  0  0  0
M  END
$$$$
