DT2_A_1299
          05071912473D 1   1.00000     0.00000     0
            
 48 51  0  0  0  0            999 V2000
    6.8901   23.8615    7.3224 S   0  0  0  0  0  0  0  0  0  0  0  0
    7.3696   23.5394    6.0510 O   0  0  0  0  0  0  0  0  0  0  0  0
    7.8999   24.3606    8.1223 O   0  0  0  0  0  0  0  0  0  0  0  0
    6.1821   22.6549    7.9775 N   0  0  0  0  0  0  0  0  0  0  0  0
    1.4582   30.5986    6.8683 N   0  0  0  0  0  0  0  0  0  0  0  0
   -0.3550   30.8599    8.0722 N   0  0  0  0  0  0  0  0  0  0  0  0
   -0.5006   28.5745    8.8525 N   0  0  0  0  0  0  0  0  0  0  0  0
   -0.5551   26.3030    9.4556 N   0  0  0  0  0  0  0  0  0  0  0  0
    2.8900   28.1479    6.5806 N   0  0  0  0  0  0  0  0  0  0  0  0
    1.1398   29.4437    7.4408 N   0  0  0  0  0  0  0  0  0  0  0  0
    0.5374   31.5056    7.2632 C   0  0  0  0  0  0  0  0  0  0  0  0
   -0.1289   22.2205   10.1797 C   0  0  0  0  0  0  0  0  0  0  0  0
    0.7356   22.8283    9.0784 C   0  0  0  0  0  0  0  0  0  0  0  0
   -0.1357   23.1476   11.3918 C   0  0  0  0  0  0  0  0  0  0  0  0
    5.4403   25.6490    5.8480 C   0  0  0  0  0  0  0  0  0  0  0  0
    4.9897   25.6392    8.2259 C   0  0  0  0  0  0  0  0  0  0  0  0
    0.1703   24.1887    8.6785 C   0  0  0  0  0  0  0  0  0  0  0  0
   -0.6978   24.5081   10.9900 C   0  0  0  0  0  0  0  0  0  0  0  0
    4.4949   26.6536    5.6679 C   0  0  0  0  0  0  0  0  0  0  0  0
    4.0497   26.6539    8.0550 C   0  0  0  0  0  0  0  0  0  0  0  0
    1.2204   27.1497    8.0295 C   0  0  0  0  0  0  0  0  0  0  0  0
    5.6901   25.1417    7.1171 C   0  0  0  0  0  0  0  0  0  0  0  0
    0.0344   29.5912    8.1375 C   0  0  0  0  0  0  0  0  0  0  0  0
    0.0598   27.3454    8.8031 C   0  0  0  0  0  0  0  0  0  0  0  0
    1.7646   28.2589    7.3509 C   0  0  0  0  0  0  0  0  0  0  0  0
    0.1696   25.1149    9.8889 C   0  0  0  0  0  0  0  0  0  0  0  0
    3.7870   27.1508    6.7644 C   0  0  0  0  0  0  0  0  0  0  0  0
    5.8503   22.9152    8.8843 H   0  0  0  0  0  0  0  0  0  0  0  0
    5.4098   22.3723    7.4085 H   0  0  0  0  0  0  0  0  0  0  0  0
   -1.5362   26.3622    9.6398 H   0  0  0  0  0  0  0  0  0  0  0  0
    3.0546   28.8227    5.8612 H   0  0  0  0  0  0  0  0  0  0  0  0
    0.5134   32.4726    7.0097 H   0  0  0  0  0  0  0  0  0  0  0  0
    0.2438   21.3306   10.4429 H   0  0  0  0  0  0  0  0  0  0  0  0
   -1.0635   22.1043    9.8437 H   0  0  0  0  0  0  0  0  0  0  0  0
    0.7375   22.2216    8.2834 H   0  0  0  0  0  0  0  0  0  0  0  0
    1.6709   22.9416    9.4135 H   0  0  0  0  0  0  0  0  0  0  0  0
    0.7984   23.2600   11.7305 H   0  0  0  0  0  0  0  0  0  0  0  0
   -0.7057   22.7510   12.1113 H   0  0  0  0  0  0  0  0  0  0  0  0
    5.9421   25.2905    5.0608 H   0  0  0  0  0  0  0  0  0  0  0  0
    5.1644   25.2664    9.1373 H   0  0  0  0  0  0  0  0  0  0  0  0
   -0.7655   24.0757    8.3448 H   0  0  0  0  0  0  0  0  0  0  0  0
    0.7363   24.5853    7.9558 H   0  0  0  0  0  0  0  0  0  0  0  0
   -0.7002   25.1152   11.7846 H   0  0  0  0  0  0  0  0  0  0  0  0
   -1.6328   24.3958   10.6535 H   0  0  0  0  0  0  0  0  0  0  0  0
    4.3223   27.0196    4.7535 H   0  0  0  0  0  0  0  0  0  0  0  0
    3.5642   27.0273    8.8455 H   0  0  0  0  0  0  0  0  0  0  0  0
    1.6472   26.2477    7.9634 H   0  0  0  0  0  0  0  0  0  0  0  0
    1.0938   25.3274   10.2061 H   0  0  0  0  0  0  0  0  0  0  0  0
  1  2  2  0  0  0  0
  1  3  2  0  0  0  0
  1  4  1  0  0  0  0
  1 22  1  0  0  0  0
  5 10  1  0  0  0  0
  5 11  2  0  0  0  0
  6 11  1  0  0  0  0
  6 23  2  0  0  0  0
  7 23  1  0  0  0  0
  7 24  2  0  0  0  0
  8 24  1  0  0  0  0
  8 26  1  0  0  0  0
  9 25  1  0  0  0  0
  9 27  1  0  0  0  0
 10 23  1  0  0  0  0
 10 25  1  0  0  0  0
 12 13  1  0  0  0  0
 12 14  1  0  0  0  0
 13 17  1  0  0  0  0
 14 18  1  0  0  0  0
 15 19  1  0  0  0  0
 15 22  2  0  0  0  0
 16 20  2  0  0  0  0
 16 22  1  0  0  0  0
 17 26  1  0  0  0  0
 18 26  1  0  0  0  0
 19 27  2  0  0  0  0
 20 27  1  0  0  0  0
 21 24  1  0  0  0  0
 21 25  2  0  0  0  0
  4 28  1  0  0  0  0
  4 29  1  0  0  0  0
  8 30  1  0  0  0  0
  9 31  1  0  0  0  0
 11 32  1  0  0  0  0
 12 33  1  0  0  0  0
 12 34  1  0  0  0  0
 13 35  1  0  0  0  0
 13 36  1  0  0  0  0
 14 37  1  0  0  0  0
 14 38  1  0  0  0  0
 15 39  1  0  0  0  0
 16 40  1  0  0  0  0
 17 41  1  0  0  0  0
 17 42  1  0  0  0  0
 18 43  1  0  0  0  0
 18 44  1  0  0  0  0
 19 45  1  0  0  0  0
 20 46  1  0  0  0  0
 21 47  1  0  0  0  0
 26 48  1  0  0  0  0
M  END
$$$$
