DT4_A_1299
          05071912473D 1   1.00000     0.00000     0
            
 50 53  0  0  0  0            999 V2000
    7.0614   23.7759    7.3078 S   0  0  0  0  0  0  0  0  0  0  0  0
    7.7066   23.5852    6.0994 O   0  0  0  0  0  0  0  0  0  0  0  0
    7.9249   24.2495    8.2680 O   0  0  0  0  0  0  0  0  0  0  0  0
    6.3447   22.4869    7.7702 N   0  0  0  0  0  0  0  0  0  0  0  0
   -2.2679   24.8435   14.1454 N   0  0  0  0  0  0  0  0  0  0  0  0
    1.6159   30.4426    6.7760 N   0  0  0  0  0  0  0  0  0  0  0  0
   -0.2299   30.6659    7.9422 N   0  0  0  0  0  0  0  0  0  0  0  0
   -0.3991   28.3322    8.5845 N   0  0  0  0  0  0  0  0  0  0  0  0
   -0.3964   26.0228    9.0231 N   0  0  0  0  0  0  0  0  0  0  0  0
    3.0220   28.0031    6.4071 N   0  0  0  0  0  0  0  0  0  0  0  0
    1.2783   29.2700    7.2673 N   0  0  0  0  0  0  0  0  0  0  0  0
    0.6777   31.3414    7.1946 C   0  0  0  0  0  0  0  0  0  0  0  0
    5.5648   25.4710    5.7612 C   0  0  0  0  0  0  0  0  0  0  0  0
    5.1500   25.5733    8.1437 C   0  0  0  0  0  0  0  0  0  0  0  0
   -1.2643   24.0641   12.0547 C   0  0  0  0  0  0  0  0  0  0  0  0
   -1.3408   26.4945   12.5896 C   0  0  0  0  0  0  0  0  0  0  0  0
    4.6199   26.4539    5.5472 C   0  0  0  0  0  0  0  0  0  0  0  0
    4.2038   26.5723    7.9344 C   0  0  0  0  0  0  0  0  0  0  0  0
   -1.0824   24.3917   10.5772 C   0  0  0  0  0  0  0  0  0  0  0  0
   -1.1519   26.8291   11.1114 C   0  0  0  0  0  0  0  0  0  0  0  0
    1.3457   26.9735    7.7394 C   0  0  0  0  0  0  0  0  0  0  0  0
    5.8298   25.0201    7.0506 C   0  0  0  0  0  0  0  0  0  0  0  0
    0.1686   29.3904    7.9665 C   0  0  0  0  0  0  0  0  0  0  0  0
    0.1993   27.1122    8.5000 C   0  0  0  0  0  0  0  0  0  0  0  0
   -2.0791   25.1647   12.7213 C   0  0  0  0  0  0  0  0  0  0  0  0
    1.8923   28.0966    7.1349 C   0  0  0  0  0  0  0  0  0  0  0  0
   -0.3439   25.7215   10.4376 C   0  0  0  0  0  0  0  0  0  0  0  0
    3.9237   27.0038    6.6277 C   0  0  0  0  0  0  0  0  0  0  0  0
    5.8884   22.6544    8.6441 H   0  0  0  0  0  0  0  0  0  0  0  0
    5.6665   22.2188    7.0859 H   0  0  0  0  0  0  0  0  0  0  0  0
   -2.8030   25.5667   14.5821 H   0  0  0  0  0  0  0  0  0  0  0  0
   -2.7530   23.9730   14.2292 H   0  0  0  0  0  0  0  0  0  0  0  0
   -0.8909   25.4024    8.4143 H   0  0  0  0  0  0  0  0  0  0  0  0
    3.2027   28.6785    5.6923 H   0  0  0  0  0  0  0  0  0  0  0  0
    0.6624   32.3197    6.9877 H   0  0  0  0  0  0  0  0  0  0  0  0
    6.0614   25.0809    4.9858 H   0  0  0  0  0  0  0  0  0  0  0  0
    5.3439   25.2517    9.0705 H   0  0  0  0  0  0  0  0  0  0  0  0
   -0.3686   23.9993   12.4946 H   0  0  0  0  0  0  0  0  0  0  0  0
   -1.7446   23.1918   12.1461 H   0  0  0  0  0  0  0  0  0  0  0  0
   -1.8747   27.2169   13.0291 H   0  0  0  0  0  0  0  0  0  0  0  0
   -0.4468   26.4245   13.0322 H   0  0  0  0  0  0  0  0  0  0  0  0
    4.4331   26.7732    4.6181 H   0  0  0  0  0  0  0  0  0  0  0  0
    3.7253   26.9811    8.7115 H   0  0  0  0  0  0  0  0  0  0  0  0
   -1.9783   24.4603   10.1383 H   0  0  0  0  0  0  0  0  0  0  0  0
   -0.5507   23.6674   10.1382 H   0  0  0  0  0  0  0  0  0  0  0  0
   -0.6632   27.6974   11.0260 H   0  0  0  0  0  0  0  0  0  0  0  0
   -2.0460   26.9051   10.6700 H   0  0  0  0  0  0  0  0  0  0  0  0
    1.7745   26.0771    7.6266 H   0  0  0  0  0  0  0  0  0  0  0  0
   -2.9713   25.2343   12.2751 H   0  0  0  0  0  0  0  0  0  0  0  0
    0.5941   25.6729   10.7810 H   0  0  0  0  0  0  0  0  0  0  0  0
  1  2  2  0  0  0  0
  1  3  2  0  0  0  0
  1  4  1  0  0  0  0
  1 22  1  0  0  0  0
  5 25  1  0  0  0  0
  6 11  1  0  0  0  0
  6 12  2  0  0  0  0
  7 12  1  0  0  0  0
  7 23  2  0  0  0  0
  8 23  1  0  0  0  0
  8 24  2  0  0  0  0
  9 24  1  0  0  0  0
  9 27  1  0  0  0  0
 10 26  1  0  0  0  0
 10 28  1  0  0  0  0
 11 23  1  0  0  0  0
 11 26  1  0  0  0  0
 13 17  1  0  0  0  0
 13 22  2  0  0  0  0
 14 18  2  0  0  0  0
 14 22  1  0  0  0  0
 15 19  1  0  0  0  0
 15 25  1  0  0  0  0
 16 20  1  0  0  0  0
 16 25  1  0  0  0  0
 17 28  2  0  0  0  0
 18 28  1  0  0  0  0
 19 27  1  0  0  0  0
 20 27  1  0  0  0  0
 21 24  1  0  0  0  0
 21 26  2  0  0  0  0
  4 29  1  0  0  0  0
  4 30  1  0  0  0  0
  5 31  1  0  0  0  0
  5 32  1  0  0  0  0
  9 33  1  0  0  0  0
 10 34  1  0  0  0  0
 12 35  1  0  0  0  0
 13 36  1  0  0  0  0
 14 37  1  0  0  0  0
 15 38  1  0  0  0  0
 15 39  1  0  0  0  0
 16 40  1  0  0  0  0
 16 41  1  0  0  0  0
 17 42  1  0  0  0  0
 18 43  1  0  0  0  0
 19 44  1  0  0  0  0
 19 45  1  0  0  0  0
 20 46  1  0  0  0  0
 20 47  1  0  0  0  0
 21 48  1  0  0  0  0
 25 49  1  0  0  0  0
 27 50  1  0  0  0  0
M  END
$$$$
