DT5_A_1297
          05071912473D 1   1.00000     0.00000     0
            
 47 50  0  0  0  0            999 V2000
    6.9584   23.9156    7.4162 S   0  0  0  0  0  0  0  0  0  0  0  0
    6.3211   22.7679    8.0719 O   0  0  0  0  0  0  0  0  0  0  0  0
    8.0375   24.4251    8.2551 O   0  0  0  0  0  0  0  0  0  0  0  0
   -0.8484   26.6106    9.5298 O   0  0  0  0  0  0  0  0  0  0  0  0
    7.5358   23.4714    6.0104 N   0  0  0  0  0  0  0  0  0  0  0  0
    1.5315   30.6050    6.7821 N   0  0  0  0  0  0  0  0  0  0  0  0
   -0.3307   31.0262    7.8622 N   0  0  0  0  0  0  0  0  0  0  0  0
   -0.6232   28.8126    8.7499 N   0  0  0  0  0  0  0  0  0  0  0  0
    2.9222   28.1350    6.7066 N   0  0  0  0  0  0  0  0  0  0  0  0
    1.1314   29.5063    7.3875 N   0  0  0  0  0  0  0  0  0  0  0  0
    0.6408   31.5853    7.0867 C   0  0  0  0  0  0  0  0  0  0  0  0
   -0.5293   22.5611   10.4132 C   0  0  0  0  0  0  0  0  0  0  0  0
   -0.1353   23.0112    9.0042 C   0  0  0  0  0  0  0  0  0  0  0  0
    0.0260   23.5579   11.4314 C   0  0  0  0  0  0  0  0  0  0  0  0
    5.5240   25.6699    5.9438 C   0  0  0  0  0  0  0  0  0  0  0  0
    5.0364   25.6037    8.3087 C   0  0  0  0  0  0  0  0  0  0  0  0
   -0.7219   24.4028    8.7207 C   0  0  0  0  0  0  0  0  0  0  0  0
   -0.5520   24.9497   11.1554 C   0  0  0  0  0  0  0  0  0  0  0  0
    4.5659   26.6662    5.7810 C   0  0  0  0  0  0  0  0  0  0  0  0
    4.0653   26.5849    8.1515 C   0  0  0  0  0  0  0  0  0  0  0  0
    1.0809   27.2477    8.1390 C   0  0  0  0  0  0  0  0  0  0  0  0
    5.7659   25.1487    7.2014 C   0  0  0  0  0  0  0  0  0  0  0  0
   -0.1213   27.5541    8.8281 C   0  0  0  0  0  0  0  0  0  0  0  0
   -0.1940   25.4242    9.7362 C   0  0  0  0  0  0  0  0  0  0  0  0
   -0.0066   29.7449    8.0176 C   0  0  0  0  0  0  0  0  0  0  0  0
    1.7303   28.3109    7.4299 C   0  0  0  0  0  0  0  0  0  0  0  0
    3.7991   27.1016    6.8807 C   0  0  0  0  0  0  0  0  0  0  0  0
    7.9695   24.2550    5.5655 H   0  0  0  0  0  0  0  0  0  0  0  0
    8.2119   22.7464    6.1418 H   0  0  0  0  0  0  0  0  0  0  0  0
    3.1457   28.8183    6.0115 H   0  0  0  0  0  0  0  0  0  0  0  0
    0.6891   32.5408    6.7955 H   0  0  0  0  0  0  0  0  0  0  0  0
   -0.1505   21.6532   10.5927 H   0  0  0  0  0  0  0  0  0  0  0  0
   -1.5260   22.5271   10.4873 H   0  0  0  0  0  0  0  0  0  0  0  0
   -0.4908   22.3583    8.3353 H   0  0  0  0  0  0  0  0  0  0  0  0
    0.8615   23.0504    8.9345 H   0  0  0  0  0  0  0  0  0  0  0  0
    1.0226   23.5904   11.3560 H   0  0  0  0  0  0  0  0  0  0  0  0
   -0.2292   23.2684   12.3539 H   0  0  0  0  0  0  0  0  0  0  0  0
    6.0357   25.3321    5.1538 H   0  0  0  0  0  0  0  0  0  0  0  0
    5.2156   25.2207    9.2149 H   0  0  0  0  0  0  0  0  0  0  0  0
   -1.7189   24.3593    8.7854 H   0  0  0  0  0  0  0  0  0  0  0  0
   -0.4599   24.6891    7.7991 H   0  0  0  0  0  0  0  0  0  0  0  0
   -0.1786   25.5966   11.8203 H   0  0  0  0  0  0  0  0  0  0  0  0
   -1.5472   24.9146   11.2470 H   0  0  0  0  0  0  0  0  0  0  0  0
    4.4210   27.0750    4.8800 H   0  0  0  0  0  0  0  0  0  0  0  0
    3.5583   26.9203    8.9454 H   0  0  0  0  0  0  0  0  0  0  0  0
    1.4615   26.3231    8.1479 H   0  0  0  0  0  0  0  0  0  0  0  0
    0.7944   25.5423    9.6400 H   0  0  0  0  0  0  0  0  0  0  0  0
  1  2  2  0  0  0  0
  1  3  2  0  0  0  0
  1  5  1  0  0  0  0
  1 22  1  0  0  0  0
  4 23  1  0  0  0  0
  4 24  1  0  0  0  0
  6 10  1  0  0  0  0
  6 11  2  0  0  0  0
  7 11  1  0  0  0  0
  7 25  2  0  0  0  0
  8 23  2  0  0  0  0
  8 25  1  0  0  0  0
  9 26  1  0  0  0  0
  9 27  1  0  0  0  0
 10 25  1  0  0  0  0
 10 26  1  0  0  0  0
 12 13  1  0  0  0  0
 12 14  1  0  0  0  0
 13 17  1  0  0  0  0
 14 18  1  0  0  0  0
 15 19  1  0  0  0  0
 15 22  2  0  0  0  0
 16 20  2  0  0  0  0
 16 22  1  0  0  0  0
 17 24  1  0  0  0  0
 18 24  1  0  0  0  0
 19 27  2  0  0  0  0
 20 27  1  0  0  0  0
 21 23  1  0  0  0  0
 21 26  2  0  0  0  0
  5 28  1  0  0  0  0
  5 29  1  0  0  0  0
  9 30  1  0  0  0  0
 11 31  1  0  0  0  0
 12 32  1  0  0  0  0
 12 33  1  0  0  0  0
 13 34  1  0  0  0  0
 13 35  1  0  0  0  0
 14 36  1  0  0  0  0
 14 37  1  0  0  0  0
 15 38  1  0  0  0  0
 16 39  1  0  0  0  0
 17 40  1  0  0  0  0
 17 41  1  0  0  0  0
 18 42  1  0  0  0  0
 18 43  1  0  0  0  0
 19 44  1  0  0  0  0
 20 45  1  0  0  0  0
 21 46  1  0  0  0  0
 24 47  1  0  0  0  0
M  END
$$$$
