4SP_A_1297
          05071912473D 1   1.00000     0.00000     0
            
 50 53  0  0  0  0            999 V2000
    6.7157   23.7491    7.4024 S   0  0  0  0  0  0  0  0  0  0  0  0
    7.8687   24.3797    8.0865 O   0  0  0  0  0  0  0  0  0  0  0  0
    7.1105   23.0341    6.1860 O   0  0  0  0  0  0  0  0  0  0  0  0
   -0.2899   27.1554    8.9762 O   0  0  0  0  0  0  0  0  0  0  0  0
    5.9985   22.5742    8.3378 N   0  0  0  0  0  0  0  0  0  0  0  0
   -0.2120   31.3355    7.4686 N   0  0  0  0  0  0  0  0  0  0  0  0
   -1.2449   29.8242    8.6417 N   0  0  0  0  0  0  0  0  0  0  0  0
    1.5046   27.8051    7.5645 N   0  0  0  0  0  0  0  0  0  0  0  0
    3.2950   28.4831    6.1795 N   0  0  0  0  0  0  0  0  0  0  0  0
    1.6270   30.0467    6.7270 N   0  0  0  0  0  0  0  0  0  0  0  0
    0.3946   25.9085    9.4556 C   0  0  0  0  0  0  0  0  0  0  0  0
   -1.2736   31.0906    8.2538 C   0  0  0  0  0  0  0  0  0  0  0  0
   -2.1667   24.5288   12.8497 C   0  0  0  0  0  0  0  0  0  0  0  0
   -0.6527   24.7708   13.0006 C   0  0  0  0  0  0  0  0  0  0  0  0
   -2.7084   24.9143   11.4220 C   0  0  0  0  0  0  0  0  0  0  0  0
    5.8879   25.9061    5.8843 C   0  0  0  0  0  0  0  0  0  0  0  0
    4.6333   25.4964    7.8978 C   0  0  0  0  0  0  0  0  0  0  0  0
    0.0733   24.5300   11.6605 C   0  0  0  0  0  0  0  0  0  0  0  0
   -1.7481   24.7513   10.2030 C   0  0  0  0  0  0  0  0  0  0  0  0
    5.0786   27.0094    5.6210 C   0  0  0  0  0  0  0  0  0  0  0  0
    3.8088   26.6105    7.6158 C   0  0  0  0  0  0  0  0  0  0  0  0
    5.6705   25.1417    7.0295 C   0  0  0  0  0  0  0  0  0  0  0  0
    0.3777   28.0496    8.2538 C   0  0  0  0  0  0  0  0  0  0  0  0
    2.1399   28.7873    6.8232 C   0  0  0  0  0  0  0  0  0  0  0  0
    4.0280   27.3940    6.4736 C   0  0  0  0  0  0  0  0  0  0  0  0
    0.5024   30.2909    7.3834 C   0  0  0  0  0  0  0  0  0  0  0  0
   -0.5031   25.4691   10.6171 C   0  0  0  0  0  0  0  0  0  0  0  0
   -0.1641   29.3028    8.1295 C   0  0  0  0  0  0  0  0  0  0  0  0
    5.2279   22.1761    7.8401 H   0  0  0  0  0  0  0  0  0  0  0  0
    6.6664   21.8595    8.5452 H   0  0  0  0  0  0  0  0  0  0  0  0
   -0.0150   32.2073    7.0201 H   0  0  0  0  0  0  0  0  0  0  0  0
    3.6151   29.0944    5.4557 H   0  0  0  0  0  0  0  0  0  0  0  0
    1.3238   26.1034    9.7697 H   0  0  0  0  0  0  0  0  0  0  0  0
    0.4244   25.2129    8.7377 H   0  0  0  0  0  0  0  0  0  0  0  0
   -1.9743   31.7581    8.5057 H   0  0  0  0  0  0  0  0  0  0  0  0
   -2.6476   25.0784   13.5328 H   0  0  0  0  0  0  0  0  0  0  0  0
   -2.3527   23.5595   13.0107 H   0  0  0  0  0  0  0  0  0  0  0  0
   -0.2870   24.1448   13.6894 H   0  0  0  0  0  0  0  0  0  0  0  0
   -0.4985   25.7147   13.2927 H   0  0  0  0  0  0  0  0  0  0  0  0
   -2.9822   25.8755   11.4579 H   0  0  0  0  0  0  0  0  0  0  0  0
   -3.5116   24.3453   11.2455 H   0  0  0  0  0  0  0  0  0  0  0  0
    6.6239   25.6630    5.2524 H   0  0  0  0  0  0  0  0  0  0  0  0
    4.4733   24.9578    8.7251 H   0  0  0  0  0  0  0  0  0  0  0  0
   -0.0611   23.5824   11.3708 H   0  0  0  0  0  0  0  0  0  0  0  0
    1.0509   24.7093   11.7708 H   0  0  0  0  0  0  0  0  0  0  0  0
   -2.1416   25.1680    9.3835 H   0  0  0  0  0  0  0  0  0  0  0  0
   -1.5587   23.7852   10.0276 H   0  0  0  0  0  0  0  0  0  0  0  0
    5.2509   27.5474    4.7958 H   0  0  0  0  0  0  0  0  0  0  0  0
    3.0610   26.8421    8.2381 H   0  0  0  0  0  0  0  0  0  0  0  0
   -0.7892   26.2990   11.0962 H   0  0  0  0  0  0  0  0  0  0  0  0
  1  2  2  0  0  0  0
  1  3  2  0  0  0  0
  1  5  1  0  0  0  0
  1 22  1  0  0  0  0
  4 11  1  0  0  0  0
  4 23  1  0  0  0  0
  6 12  1  0  0  0  0
  6 26  1  0  0  0  0
  7 12  2  0  0  0  0
  7 28  1  0  0  0  0
  8 23  1  0  0  0  0
  8 24  2  0  0  0  0
  9 24  1  0  0  0  0
  9 25  1  0  0  0  0
 10 24  1  0  0  0  0
 10 26  2  0  0  0  0
 11 27  1  0  0  0  0
 13 14  1  0  0  0  0
 13 15  1  0  0  0  0
 14 18  1  0  0  0  0
 15 19  1  0  0  0  0
 16 20  1  0  0  0  0
 16 22  2  0  0  0  0
 17 21  2  0  0  0  0
 17 22  1  0  0  0  0
 18 27  1  0  0  0  0
 19 27  1  0  0  0  0
 20 25  2  0  0  0  0
 21 25  1  0  0  0  0
 23 28  2  0  0  0  0
 26 28  1  0  0  0  0
  5 29  1  0  0  0  0
  5 30  1  0  0  0  0
  6 31  1  0  0  0  0
  9 32  1  0  0  0  0
 11 33  1  0  0  0  0
 11 34  1  0  0  0  0
 12 35  1  0  0  0  0
 13 36  1  0  0  0  0
 13 37  1  0  0  0  0
 14 38  1  0  0  0  0
 14 39  1  0  0  0  0
 15 40  1  0  0  0  0
 15 41  1  0  0  0  0
 16 42  1  0  0  0  0
 17 43  1  0  0  0  0
 18 44  1  0  0  0  0
 18 45  1  0  0  0  0
 19 46  1  0  0  0  0
 19 47  1  0  0  0  0
 20 48  1  0  0  0  0
 21 49  1  0  0  0  0
 27 50  1  0  0  0  0
M  END
$$$$
