F18_A_1299
          05071912473D 1   1.00000     0.00000     0
            
 26 27  0  0  0  0            999 V2000
   -4.0273   30.8400   10.8007 O   0  0  0  0  0  0  0  0  0  0  0  0
    0.5489   31.3017    7.1314 N   0  0  0  0  0  0  0  0  0  0  0  0
    3.3079   27.4385    6.5505 N   0  0  0  0  0  0  0  0  0  0  0  0
    2.4674   30.6390    6.0236 N   0  0  0  0  0  0  0  0  0  0  0  0
    3.2180   29.6741    5.8321 N   0  0  0  0  0  0  0  0  0  0  0  0
    0.0351   27.9959    8.6397 N   0  0  0  0  0  0  0  0  0  0  0  0
    0.9878   28.0790    7.8717 N   0  0  0  0  0  0  0  0  0  0  0  0
   -2.1836   30.7940    9.2506 C   0  0  0  0  0  0  0  0  0  0  0  0
   -2.7444   28.8869   10.6142 C   0  0  0  0  0  0  0  0  0  0  0  0
   -1.1198   30.1377    8.6504 C   0  0  0  0  0  0  0  0  0  0  0  0
   -1.6809   28.2256   10.0370 C   0  0  0  0  0  0  0  0  0  0  0  0
   -2.9916   30.1856   10.2071 C   0  0  0  0  0  0  0  0  0  0  0  0
    1.4327   30.3724    6.7962 C   0  0  0  0  0  0  0  0  0  0  0  0
    2.7430   28.6405    6.5111 C   0  0  0  0  0  0  0  0  0  0  0  0
   -0.8868   28.8329    9.0723 C   0  0  0  0  0  0  0  0  0  0  0  0
    1.5809   29.0302    7.1526 C   0  0  0  0  0  0  0  0  0  0  0  0
   -4.5879   30.3727   11.4843 H   0  0  0  0  0  0  0  0  0  0  0  0
   -0.2251   31.0667    7.7194 H   0  0  0  0  0  0  0  0  0  0  0  0
    0.6561   32.2378    6.7964 H   0  0  0  0  0  0  0  0  0  0  0  0
    2.8885   26.7063    7.0872 H   0  0  0  0  0  0  0  0  0  0  0  0
    4.1524   27.2661    6.0435 H   0  0  0  0  0  0  0  0  0  0  0  0
    2.6313   31.5423    5.6270 H   0  0  0  0  0  0  0  0  0  0  0  0
   -2.3774   31.7388    8.9867 H   0  0  0  0  0  0  0  0  0  0  0  0
   -3.3172   28.4430   11.3033 H   0  0  0  0  0  0  0  0  0  0  0  0
   -0.5524   30.5773    7.9541 H   0  0  0  0  0  0  0  0  0  0  0  0
   -1.4768   27.2882   10.3190 H   0  0  0  0  0  0  0  0  0  0  0  0
  1 12  1  0  0  0  0
  2 13  1  0  0  0  0
  3 14  1  0  0  0  0
  4  5  1  0  0  0  0
  4 13  1  0  0  0  0
  5 14  2  0  0  0  0
  6  7  2  0  0  0  0
  6 15  1  0  0  0  0
  7 16  1  0  0  0  0
  8 10  1  0  0  0  0
  8 12  2  0  0  0  0
  9 11  2  0  0  0  0
  9 12  1  0  0  0  0
 10 15  2  0  0  0  0
 11 15  1  0  0  0  0
 13 16  2  0  0  0  0
 14 16  1  0  0  0  0
  1 17  1  0  0  0  0
  2 18  1  0  0  0  0
  2 19  1  0  0  0  0
  3 20  1  0  0  0  0
  3 21  1  0  0  0  0
  4 22  1  0  0  0  0
  8 23  1  0  0  0  0
  9 24  1  0  0  0  0
 10 25  1  0  0  0  0
 11 26  1  0  0  0  0
M  END
$$$$
