1CD_A_501
          05071912473D 1   1.00000     0.00000     0
            
 51 56  0  0  0  0            999 V2000
    1.7971   30.3876    6.0209 O   0  0  0  0  0  0  0  0  0  0  0  0
   -4.1472   29.2608   11.2453 O   0  0  0  0  0  0  0  0  0  0  0  0
    0.7203   25.2734    9.0254 O   0  0  0  0  0  0  0  0  0  0  0  0
   -1.9025   27.7585    9.2486 N   0  0  0  0  0  0  0  0  0  0  0  0
    2.9849   28.4317    6.4103 N   0  0  0  0  0  0  0  0  0  0  0  0
    0.8592   27.5764    7.9127 N   0  0  0  0  0  0  0  0  0  0  0  0
   -2.8993   27.6341   10.1824 N   0  0  0  0  0  0  0  0  0  0  0  0
   -1.1767   25.4293   11.1344 N   0  0  0  0  0  0  0  0  0  0  0  0
    0.5639   27.1917   11.3390 C   0  0  0  0  0  0  0  0  0  0  0  0
   -3.4637   26.4207   10.7905 C   0  0  0  0  0  0  0  0  0  0  0  0
   -2.4812   25.7553   11.7532 C   0  0  0  0  0  0  0  0  0  0  0  0
   -0.9192   24.1523   10.4156 C   0  0  0  0  0  0  0  0  0  0  0  0
    4.2808   24.9516    7.5735 C   0  0  0  0  0  0  0  0  0  0  0  0
   -1.3389   31.9282    8.6342 C   0  0  0  0  0  0  0  0  0  0  0  0
    3.1005   24.5544    8.3402 C   0  0  0  0  0  0  0  0  0  0  0  0
    4.2730   26.2593    6.8901 C   0  0  0  0  0  0  0  0  0  0  0  0
   -2.3524   31.3464    9.5251 C   0  0  0  0  0  0  0  0  0  0  0  0
   -0.4017   31.1360    7.8540 C   0  0  0  0  0  0  0  0  0  0  0  0
    0.9166   24.6852   11.3901 C   0  0  0  0  0  0  0  0  0  0  0  0
    1.8615   29.2873    6.5616 C   0  0  0  0  0  0  0  0  0  0  0  0
   -3.2665   28.9329   10.4467 C   0  0  0  0  0  0  0  0  0  0  0  0
    0.5494   24.2328    9.9842 C   0  0  2  0  0  0  0  0  0  0  0  0
    1.9509   25.4755    8.4045 C   0  0  0  0  0  0  0  0  0  0  0  0
    0.0486   25.8478   11.8657 C   0  0  2  0  0  0  0  0  0  0  0  0
    3.1442   27.1877    6.9541 C   0  0  0  0  0  0  0  0  0  0  0  0
    0.6449   28.8538    7.4223 C   0  0  0  0  0  0  0  0  0  0  0  0
    1.9656   26.7726    7.7408 C   0  0  0  0  0  0  0  0  0  0  0  0
   -1.5468   29.0227    8.8722 C   0  0  0  0  0  0  0  0  0  0  0  0
   -2.4732   29.8890    9.6597 C   0  0  0  0  0  0  0  0  0  0  0  0
   -0.4749   29.6802    7.9689 C   0  0  0  0  0  0  0  0  0  0  0  0
   -1.4535   26.9548    8.8582 H   0  0  0  0  0  0  0  0  0  0  0  0
    3.7372   28.7748    5.8479 H   0  0  0  0  0  0  0  0  0  0  0  0
    1.3865   27.4541   11.8433 H   0  0  0  0  0  0  0  0  0  0  0  0
    0.7817   27.1073   10.3667 H   0  0  0  0  0  0  0  0  0  0  0  0
   -0.1405   27.8906   11.4633 H   0  0  0  0  0  0  0  0  0  0  0  0
   -3.6941   25.7726   10.0647 H   0  0  0  0  0  0  0  0  0  0  0  0
   -4.2925   26.6666   11.2932 H   0  0  0  0  0  0  0  0  0  0  0  0
   -2.3210   26.3758   12.5209 H   0  0  0  0  0  0  0  0  0  0  0  0
   -2.8924   24.9081   12.0896 H   0  0  0  0  0  0  0  0  0  0  0  0
   -1.5165   24.0709    9.6177 H   0  0  0  0  0  0  0  0  0  0  0  0
   -1.0655   23.3711   11.0225 H   0  0  0  0  0  0  0  0  0  0  0  0
    5.0769   24.3493    7.5137 H   0  0  0  0  0  0  0  0  0  0  0  0
   -1.2911   32.9243    8.5603 H   0  0  0  0  0  0  0  0  0  0  0  0
    3.0736   23.6734    8.8126 H   0  0  0  0  0  0  0  0  0  0  0  0
    5.0774   26.5235    6.3580 H   0  0  0  0  0  0  0  0  0  0  0  0
   -2.9629   31.9460   10.0425 H   0  0  0  0  0  0  0  0  0  0  0  0
    0.2717   31.5731    7.2577 H   0  0  0  0  0  0  0  0  0  0  0  0
    1.8739   24.9744   11.3958 H   0  0  0  0  0  0  0  0  0  0  0  0
    0.7970   23.9160   12.0177 H   0  0  0  0  0  0  0  0  0  0  0  0
    0.9486   23.3560    9.7161 H   0  0  0  0  0  0  0  0  0  0  0  0
   -0.0794   25.8491   12.8575 H   0  0  0  0  0  0  0  0  0  0  0  0
  1 20  2  0  0  0  0
  2 21  2  0  0  0  0
  3 22  1  0  0  0  0
  3 23  1  0  0  0  0
  4  7  1  0  0  0  0
  4 28  1  0  0  0  0
  5 20  1  0  0  0  0
  5 25  1  0  0  0  0
  6 26  2  0  0  0  0
  6 27  1  0  0  0  0
  7 10  1  0  0  0  0
  7 21  1  0  0  0  0
  8 11  1  0  0  0  0
  8 12  1  0  0  0  0
  8 24  1  0  0  0  0
  9 24  1  0  0  0  0
 10 11  1  0  0  0  0
 12 22  1  0  0  0  0
 13 15  2  0  0  0  0
 13 16  1  0  0  0  0
 14 17  2  0  0  0  0
 14 18  1  0  0  0  0
 15 23  1  0  0  0  0
 16 25  2  0  0  0  0
 17 29  1  0  0  0  0
 18 30  2  0  0  0  0
 19 22  1  0  0  0  0
 19 24  1  0  0  0  0
 20 26  1  0  0  0  0
 21 29  1  0  0  0  0
 23 27  2  0  0  0  0
 25 27  1  0  0  0  0
 26 30  1  0  0  0  0
 28 29  2  0  0  0  0
 28 30  1  0  0  0  0
  4 31  1  0  0  0  0
  5 32  1  0  0  0  0
  9 33  1  0  0  0  0
  9 34  1  0  0  0  0
  9 35  1  0  0  0  0
 10 36  1  0  0  0  0
 10 37  1  0  0  0  0
 11 38  1  0  0  0  0
 11 39  1  0  0  0  0
 12 40  1  0  0  0  0
 12 41  1  0  0  0  0
 13 42  1  0  0  0  0
 14 43  1  0  0  0  0
 15 44  1  0  0  0  0
 16 45  1  0  0  0  0
 17 46  1  0  0  0  0
 18 47  1  0  0  0  0
 19 48  1  0  0  0  0
 19 49  1  0  0  0  0
 22 50  1  0  0  0  0
 24 51  1  0  0  0  0
M  END
$$$$
