371_A_501
          05071912473D 1   1.00000     0.00000     0
            
 45 48  0  0  0  0            999 V2000
   -0.6606   24.9680    9.2015 S   0  0  0  0  0  0  0  0  0  0  0  0
   -0.3806   23.6297    8.7672 O   0  0  0  0  0  0  0  0  0  0  0  0
   -1.4426   25.8409    8.3683 O   0  0  0  0  0  0  0  0  0  0  0  0
   -5.3824   30.3069   11.3363 O   0  0  0  0  0  0  0  0  0  0  0  0
   -4.8058   27.8081   10.4352 O   0  0  0  0  0  0  0  0  0  0  0  0
   -0.3541   31.5105    7.2605 O   0  0  0  0  0  0  0  0  0  0  0  0
    1.8817   30.6060    6.2005 O   0  0  0  0  0  0  0  0  0  0  0  0
   -0.0462   28.1485    8.7993 O   0  0  0  0  0  0  0  0  0  0  0  0
    0.7790   25.6452    9.5249 N   0  0  0  0  0  0  0  0  0  0  0  0
    4.8259   26.0856    6.5591 C   0  0  0  0  0  0  0  0  0  0  0  0
   -1.2730   24.9496   10.8545 C   0  0  0  0  0  0  0  0  0  0  0  0
    1.1708   25.4246   10.9186 C   0  0  0  0  0  0  0  0  0  0  0  0
    0.0333   24.6081   11.5888 C   0  0  0  0  0  0  0  0  0  0  0  0
   -3.3353   31.2299   10.4256 C   0  0  0  0  0  0  0  0  0  0  0  0
   -2.1313   31.0049    9.7173 C   0  0  0  0  0  0  0  0  0  0  0  0
   -2.7020   28.6136    9.4659 C   0  0  0  0  0  0  0  0  0  0  0  0
    2.7742   25.8291    8.0764 C   0  0  0  0  0  0  0  0  0  0  0  0
    3.0847   27.9070    6.7839 C   0  0  0  0  0  0  0  0  0  0  0  0
   -4.2069   30.1451   10.6497 C   0  0  0  0  0  0  0  0  0  0  0  0
   -3.8938   28.8295   10.1688 C   0  0  0  0  0  0  0  0  0  0  0  0
    0.0726   30.2518    7.6209 C   0  0  0  0  0  0  0  0  0  0  0  0
    1.3674   29.7882    6.9737 C   0  0  0  0  0  0  0  0  0  0  0  0
   -0.5588   29.3939    8.5063 C   0  0  0  0  0  0  0  0  0  0  0  0
    1.1323   27.6478    8.2483 C   0  0  0  0  0  0  0  0  0  0  0  0
    1.5629   26.3471    8.6270 C   0  0  0  0  0  0  0  0  0  0  0  0
    3.5409   26.6130    7.1506 C   0  0  0  0  0  0  0  0  0  0  0  0
   -1.8079   29.6942    9.2307 C   0  0  0  0  0  0  0  0  0  0  0  0
    1.8867   28.4288    7.3270 C   0  0  0  0  0  0  0  0  0  0  0  0
   -5.9867   29.5241   11.4844 H   0  0  0  0  0  0  0  0  0  0  0  0
   -5.6453   28.0067   10.9409 H   0  0  0  0  0  0  0  0  0  0  0  0
   -1.1984   31.8819    7.6467 H   0  0  0  0  0  0  0  0  0  0  0  0
    5.2137   26.7694    5.9410 H   0  0  0  0  0  0  0  0  0  0  0  0
    5.4766   25.8930    7.2936 H   0  0  0  0  0  0  0  0  0  0  0  0
    4.6386   25.2450    6.0509 H   0  0  0  0  0  0  0  0  0  0  0  0
   -1.9728   24.2479   10.9876 H   0  0  0  0  0  0  0  0  0  0  0  0
   -1.6366   25.8395   11.1299 H   0  0  0  0  0  0  0  0  0  0  0  0
    1.2848   26.3014   11.3858 H   0  0  0  0  0  0  0  0  0  0  0  0
    2.0289   24.9125   10.9567 H   0  0  0  0  0  0  0  0  0  0  0  0
    0.2234   23.6294   11.5105 H   0  0  0  0  0  0  0  0  0  0  0  0
   -0.0426   24.8567   12.5544 H   0  0  0  0  0  0  0  0  0  0  0  0
   -3.5641   32.1435   10.7617 H   0  0  0  0  0  0  0  0  0  0  0  0
   -1.5015   31.7644    9.5546 H   0  0  0  0  0  0  0  0  0  0  0  0
   -2.4795   27.6987    9.1291 H   0  0  0  0  0  0  0  0  0  0  0  0
    3.0896   24.9166    8.3369 H   0  0  0  0  0  0  0  0  0  0  0  0
    3.6148   28.4542    6.1362 H   0  0  0  0  0  0  0  0  0  0  0  0
  1  2  2  0  0  0  0
  1  3  2  0  0  0  0
  1  9  1  0  0  0  0
  1 11  1  0  0  0  0
  4 19  1  0  0  0  0
  5 20  1  0  0  0  0
  6 21  1  0  0  0  0
  7 22  2  0  0  0  0
  8 23  1  0  0  0  0
  8 24  1  0  0  0  0
  9 12  1  0  0  0  0
  9 25  1  0  0  0  0
 10 26  1  0  0  0  0
 11 13  1  0  0  0  0
 12 13  1  0  0  0  0
 14 15  1  0  0  0  0
 14 19  2  0  0  0  0
 15 27  2  0  0  0  0
 16 20  2  0  0  0  0
 16 27  1  0  0  0  0
 17 25  1  0  0  0  0
 17 26  2  0  0  0  0
 18 26  1  0  0  0  0
 18 28  2  0  0  0  0
 19 20  1  0  0  0  0
 21 22  1  0  0  0  0
 21 23  2  0  0  0  0
 22 28  1  0  0  0  0
 23 27  1  0  0  0  0
 24 25  2  0  0  0  0
 24 28  1  0  0  0  0
  4 29  1  0  0  0  0
  5 30  1  0  0  0  0
  6 31  1  0  0  0  0
 10 32  1  0  0  0  0
 10 33  1  0  0  0  0
 10 34  1  0  0  0  0
 11 35  1  0  0  0  0
 11 36  1  0  0  0  0
 12 37  1  0  0  0  0
 12 38  1  0  0  0  0
 13 39  1  0  0  0  0
 13 40  1  0  0  0  0
 14 41  1  0  0  0  0
 15 42  1  0  0  0  0
 16 43  1  0  0  0  0
 17 44  1  0  0  0  0
 18 45  1  0  0  0  0
M  END
$$$$
