ZIP_A_400
          05071912473D 1   1.00000     0.00000     0
            
 30 31  0  0  0  0            999 V2000
    1.7674   29.8187    6.0918 N   0  0  0  0  0  0  0  0  0  0  0  0
    0.0478   31.4034    7.0818 N   0  0  0  0  0  0  0  0  0  0  0  0
    1.8843   27.8084    7.2010 N   0  0  0  0  0  0  0  0  0  0  0  0
    0.5329   27.0382    9.0166 N   0  0  0  0  0  0  0  0  0  0  0  0
   -0.7219   30.0068    8.6947 N   0  0  0  0  0  0  0  0  0  0  0  0
   -0.0610   23.2831   11.3245 C   0  0  0  0  0  0  0  0  0  0  0  0
   -1.1599   23.1279    9.0411 C   0  0  0  0  0  0  0  0  0  0  0  0
    2.2977   28.6288    6.2913 C   0  0  0  0  0  0  0  0  0  0  0  0
   -0.8387   31.1726    8.0848 C   0  0  0  0  0  0  0  0  0  0  0  0
    1.4050   25.9126    9.4146 C   0  0  0  0  0  0  0  0  0  0  0  0
    0.9458   24.4623    9.3501 C   0  0  0  0  0  0  0  0  0  0  0  0
    0.7238   30.2417    6.9843 C   0  0  0  0  0  0  0  0  0  0  0  0
    0.8961   28.0583    8.0719 C   0  0  0  0  0  0  0  0  0  0  0  0
   -0.1298   23.8363    9.8974 C   0  0  0  0  0  0  0  0  0  0  0  0
    0.3102   29.3702    7.9724 C   0  0  0  0  0  0  0  0  0  0  0  0
   -0.3738   27.0937    9.4346 H   0  0  0  0  0  0  0  0  0  0  0  0
   -1.2387   29.6598    9.4773 H   0  0  0  0  0  0  0  0  0  0  0  0
    0.6316   23.7844   11.8433 H   0  0  0  0  0  0  0  0  0  0  0  0
   -0.9514   23.3904   11.7669 H   0  0  0  0  0  0  0  0  0  0  0  0
    0.1817   22.3135   11.2948 H   0  0  0  0  0  0  0  0  0  0  0  0
   -1.1626   23.5271    8.1242 H   0  0  0  0  0  0  0  0  0  0  0  0
   -0.9319   22.1561    8.9809 H   0  0  0  0  0  0  0  0  0  0  0  0
   -2.0650   23.2331    9.4531 H   0  0  0  0  0  0  0  0  0  0  0  0
    3.0595   28.3457    5.7086 H   0  0  0  0  0  0  0  0  0  0  0  0
   -1.5346   31.8420    8.3447 H   0  0  0  0  0  0  0  0  0  0  0  0
    1.6601   26.0815   10.3666 H   0  0  0  0  0  0  0  0  0  0  0  0
    2.2183   25.9728    8.8358 H   0  0  0  0  0  0  0  0  0  0  0  0
    1.7266   23.9494    9.7068 H   0  0  0  0  0  0  0  0  0  0  0  0
    0.8507   24.2861    8.3704 H   0  0  0  0  0  0  0  0  0  0  0  0
   -0.6682   24.6543   10.1000 H   0  0  0  0  0  0  0  0  0  0  0  0
  1  8  2  0  0  0  0
  1 12  1  0  0  0  0
  2  9  2  0  0  0  0
  2 12  1  0  0  0  0
  3  8  1  0  0  0  0
  3 13  2  0  0  0  0
  4 10  1  0  0  0  0
  4 13  1  0  0  0  0
  5  9  1  0  0  0  0
  5 15  1  0  0  0  0
  6 14  1  0  0  0  0
  7 14  1  0  0  0  0
 10 11  1  0  0  0  0
 11 14  1  0  0  0  0
 12 15  2  0  0  0  0
 13 15  1  0  0  0  0
  4 16  1  0  0  0  0
  5 17  1  0  0  0  0
  6 18  1  0  0  0  0
  6 19  1  0  0  0  0
  6 20  1  0  0  0  0
  7 21  1  0  0  0  0
  7 22  1  0  0  0  0
  7 23  1  0  0  0  0
  8 24  1  0  0  0  0
  9 25  1  0  0  0  0
 10 26  1  0  0  0  0
 10 27  1  0  0  0  0
 11 28  1  0  0  0  0
 11 29  1  0  0  0  0
 14 30  1  0  0  0  0
M  END
$$$$
