SC8_A_501
          05071912473D 1   1.00000     0.00000     0
            
 38 41  0  0  0  0            999 V2000
   -1.0435   22.3058   10.1125 Cl  0  0  0  0  0  0  0  0  0  0  0  0
    0.0102   24.3690    8.0885 Cl  0  0  0  0  0  0  0  0  0  0  0  0
    1.5009   30.4154    6.8588 N   0  0  0  0  0  0  0  0  0  0  0  0
    4.7110   23.9943    4.8440 N   0  0  0  0  0  0  0  0  0  0  0  0
    3.3355   28.2396    7.1402 N   0  0  0  0  0  0  0  0  0  0  0  0
   -0.4595   28.3131    9.0608 N   0  0  0  0  0  0  0  0  0  0  0  0
    1.2760   29.2905    7.5909 N   0  0  0  0  0  0  0  0  0  0  0  0
    0.4352   31.2271    7.0942 C   0  0  0  0  0  0  0  0  0  0  0  0
    4.5072   23.7921    6.1586 C   0  0  0  0  0  0  0  0  0  0  0  0
    4.8384   25.2760    4.4205 C   0  0  0  0  0  0  0  0  0  0  0  0
    4.3412   27.2932    7.5790 C   0  0  0  0  0  0  0  0  0  0  0  0
   -0.8782   25.5943   12.2988 C   0  0  0  0  0  0  0  0  0  0  0  0
   -0.5484   30.6032    7.9310 C   0  0  0  0  0  0  0  0  0  0  0  0
    4.3784   24.8388    7.0943 C   0  0  0  0  0  0  0  0  0  0  0  0
    4.7141   26.3834    5.2790 C   0  0  0  0  0  0  0  0  0  0  0  0
   -1.0489   24.2780   11.8989 C   0  0  0  0  0  0  0  0  0  0  0  0
   -0.3990   26.5316   11.3999 C   0  0  0  0  0  0  0  0  0  0  0  0
    1.6355   27.1427    8.5488 C   0  0  0  0  0  0  0  0  0  0  0  0
    2.1023   28.2045    7.7469 C   0  0  0  0  0  0  0  0  0  0  0  0
    0.0026   29.3350    8.2821 C   0  0  0  0  0  0  0  0  0  0  0  0
   -0.7748   23.9111   10.5810 C   0  0  0  0  0  0  0  0  0  0  0  0
    0.3336   27.2449    9.1588 C   0  0  0  0  0  0  0  0  0  0  0  0
   -0.3110   24.8433    9.6626 C   0  0  0  0  0  0  0  0  0  0  0  0
    4.4889   26.1523    6.6352 C   0  0  0  0  0  0  0  0  0  0  0  0
   -0.1146   26.1686   10.0763 C   0  0  0  0  0  0  0  0  0  0  0  0
    3.5331   28.9001    6.4159 H   0  0  0  0  0  0  0  0  0  0  0  0
    0.3476   32.1527    6.7261 H   0  0  0  0  0  0  0  0  0  0  0  0
    4.4438   22.8504    6.4890 H   0  0  0  0  0  0  0  0  0  0  0  0
    5.0297   25.4418    3.4530 H   0  0  0  0  0  0  0  0  0  0  0  0
    4.0790   26.9373    8.4759 H   0  0  0  0  0  0  0  0  0  0  0  0
    5.2190   27.7667    7.6518 H   0  0  0  0  0  0  0  0  0  0  0  0
   -1.1009   25.8663   13.2350 H   0  0  0  0  0  0  0  0  0  0  0  0
   -1.4329   30.9778    8.2094 H   0  0  0  0  0  0  0  0  0  0  0  0
    4.2122   24.6453    8.0613 H   0  0  0  0  0  0  0  0  0  0  0  0
    4.7856   27.3156    4.9244 H   0  0  0  0  0  0  0  0  0  0  0  0
   -1.3679   23.5929   12.5537 H   0  0  0  0  0  0  0  0  0  0  0  0
   -0.2544   27.4754   11.6973 H   0  0  0  0  0  0  0  0  0  0  0  0
    2.2000   26.3298    8.6922 H   0  0  0  0  0  0  0  0  0  0  0  0
  1 21  1  0  0  0  0
  2 23  1  0  0  0  0
  3  7  1  0  0  0  0
  3  8  2  0  0  0  0
  4  9  2  0  0  0  0
  4 10  1  0  0  0  0
  5 11  1  0  0  0  0
  5 19  1  0  0  0  0
  6 20  1  0  0  0  0
  6 22  2  0  0  0  0
  7 19  1  0  0  0  0
  7 20  1  0  0  0  0
  8 13  1  0  0  0  0
  9 14  1  0  0  0  0
 10 15  2  0  0  0  0
 11 24  1  0  0  0  0
 12 16  2  0  0  0  0
 12 17  1  0  0  0  0
 13 20  2  0  0  0  0
 14 24  2  0  0  0  0
 15 24  1  0  0  0  0
 16 21  1  0  0  0  0
 17 25  2  0  0  0  0
 18 19  2  0  0  0  0
 18 22  1  0  0  0  0
 21 23  2  0  0  0  0
 22 25  1  0  0  0  0
 23 25  1  0  0  0  0
  5 26  1  0  0  0  0
  8 27  1  0  0  0  0
  9 28  1  0  0  0  0
 10 29  1  0  0  0  0
 11 30  1  0  0  0  0
 11 31  1  0  0  0  0
 12 32  1  0  0  0  0
 13 33  1  0  0  0  0
 14 34  1  0  0  0  0
 15 35  1  0  0  0  0
 16 36  1  0  0  0  0
 17 37  1  0  0  0  0
 18 38  1  0  0  0  0
M  END
$$$$
