SC9_A_501
          05071912473D 1   1.00000     0.00000     0
            
 38 41  0  0  0  0            999 V2000
    1.6254   30.5041    6.2044 F   0  0  0  0  0  0  0  0  0  0  0  0
   -1.2226   24.0482   10.0192 N   0  0  0  0  0  0  0  0  0  0  0  0
    5.0420   25.2063    7.0488 N   0  0  0  0  0  0  0  0  0  0  0  0
    3.2560   24.9814    9.3718 N   0  0  0  0  0  0  0  0  0  0  0  0
    2.0867   26.8503    8.5020 N   0  0  0  0  0  0  0  0  0  0  0  0
    3.8665   26.9843    6.4073 N   0  0  0  0  0  0  0  0  0  0  0  0
   -1.0929   22.7084    9.8714 C   0  0  0  0  0  0  0  0  0  0  0  0
    5.5697   25.7100    5.9067 C   0  0  0  0  0  0  0  0  0  0  0  0
   -0.1007   24.7469   10.2349 C   0  0  0  0  0  0  0  0  0  0  0  0
    2.3899   25.0417   10.5542 C   0  0  0  0  0  0  0  0  0  0  0  0
    4.8629   26.8089    5.4696 C   0  0  0  0  0  0  0  0  0  0  0  0
    0.1318   22.0367    9.9628 C   0  0  0  0  0  0  0  0  0  0  0  0
   -1.1583   30.7062    8.4796 C   0  0  0  0  0  0  0  0  0  0  0  0
   -1.1112   29.4494    9.0917 C   0  0  0  0  0  0  0  0  0  0  0  0
    2.8291   27.8542    6.4585 C   0  0  0  0  0  0  0  0  0  0  0  0
   -0.2197   31.0221    7.4893 C   0  0  0  0  0  0  0  0  0  0  0  0
    1.2950   22.7911   10.1872 C   0  0  0  0  0  0  0  0  0  0  0  0
   -0.1012   28.5315    8.7510 C   0  0  0  0  0  0  0  0  0  0  0  0
    3.0632   25.9659    8.4444 C   0  0  0  0  0  0  0  0  0  0  0  0
    0.7845   30.1172    7.1404 C   0  0  0  0  0  0  0  0  0  0  0  0
    4.0054   26.0192    7.3383 C   0  0  0  0  0  0  0  0  0  0  0  0
    1.9438   27.8202    7.5308 C   0  0  0  0  0  0  0  0  0  0  0  0
    1.1830   24.1867   10.3262 C   0  0  0  0  0  0  0  0  0  0  0  0
    0.8551   28.8233    7.7642 C   0  0  0  0  0  0  0  0  0  0  0  0
    3.9437   24.2653    9.2522 H   0  0  0  0  0  0  0  0  0  0  0  0
   -1.9155   22.1705    9.6873 H   0  0  0  0  0  0  0  0  0  0  0  0
    6.3698   25.3322    5.4407 H   0  0  0  0  0  0  0  0  0  0  0  0
   -0.1833   25.7381   10.3382 H   0  0  0  0  0  0  0  0  0  0  0  0
    2.1047   25.9872   10.7116 H   0  0  0  0  0  0  0  0  0  0  0  0
    2.8905   24.7072   11.3526 H   0  0  0  0  0  0  0  0  0  0  0  0
    5.0345   27.3587    4.6521 H   0  0  0  0  0  0  0  0  0  0  0  0
    0.1775   21.0420    9.8704 H   0  0  0  0  0  0  0  0  0  0  0  0
   -1.8549   31.3722    8.7463 H   0  0  0  0  0  0  0  0  0  0  0  0
   -1.7987   29.2023    9.7746 H   0  0  0  0  0  0  0  0  0  0  0  0
    2.6997   28.5211    5.7247 H   0  0  0  0  0  0  0  0  0  0  0  0
   -0.2695   31.9070    7.0262 H   0  0  0  0  0  0  0  0  0  0  0  0
    2.1874   22.3440   10.2472 H   0  0  0  0  0  0  0  0  0  0  0  0
   -0.0631   27.6504    9.2224 H   0  0  0  0  0  0  0  0  0  0  0  0
  1 20  1  0  0  0  0
  2  7  2  0  0  0  0
  2  9  1  0  0  0  0
  3  8  1  0  0  0  0
  3 21  2  0  0  0  0
  4 10  1  0  0  0  0
  4 19  1  0  0  0  0
  5 19  2  0  0  0  0
  5 22  1  0  0  0  0
  6 11  1  0  0  0  0
  6 15  1  0  0  0  0
  6 21  1  0  0  0  0
  7 12  1  0  0  0  0
  8 11  2  0  0  0  0
  9 23  2  0  0  0  0
 10 23  1  0  0  0  0
 12 17  2  0  0  0  0
 13 14  2  0  0  0  0
 13 16  1  0  0  0  0
 14 18  1  0  0  0  0
 15 22  2  0  0  0  0
 16 20  2  0  0  0  0
 17 23  1  0  0  0  0
 18 24  2  0  0  0  0
 19 21  1  0  0  0  0
 20 24  1  0  0  0  0
 22 24  1  0  0  0  0
  4 25  1  0  0  0  0
  7 26  1  0  0  0  0
  8 27  1  0  0  0  0
  9 28  1  0  0  0  0
 10 29  1  0  0  0  0
 10 30  1  0  0  0  0
 11 31  1  0  0  0  0
 12 32  1  0  0  0  0
 13 33  1  0  0  0  0
 14 34  1  0  0  0  0
 15 35  1  0  0  0  0
 16 36  1  0  0  0  0
 17 37  1  0  0  0  0
 18 38  1  0  0  0  0
M  END
$$$$
