SCE_A_501
          05071912473D 1   1.00000     0.00000     0
            
 31 33  0  0  0  0            999 V2000
    5.0936   24.1056    3.4033 N   0  0  0  0  0  0  0  0  0  0  0  0
    2.2758   26.6932    7.9198 N   0  0  0  0  0  0  0  0  0  0  0  0
    3.8565   27.8959    6.5809 N   0  0  0  0  0  0  0  0  0  0  0  0
    1.8936   30.2088    6.5393 N   0  0  0  0  0  0  0  0  0  0  0  0
    0.4934   28.9094    7.8495 N   0  0  0  0  0  0  0  0  0  0  0  0
   -1.4900   30.4726    8.1932 C   0  0  0  0  0  0  0  0  0  0  0  0
    4.8236   23.6691    4.6594 C   0  0  0  0  0  0  0  0  0  0  0  0
    5.2795   25.4309    3.2385 C   0  0  0  0  0  0  0  0  0  0  0  0
    1.0563   26.6958    8.5429 C   0  0  0  0  0  0  0  0  0  0  0  0
    0.1538   27.7576    8.5420 C   0  0  0  0  0  0  0  0  0  0  0  0
    0.7440   30.9394    6.8837 C   0  0  0  0  0  0  0  0  0  0  0  0
    4.8594   26.8537    6.7507 C   0  0  0  0  0  0  0  0  0  0  0  0
    4.7423   24.5248    5.7768 C   0  0  0  0  0  0  0  0  0  0  0  0
    5.2081   26.3625    4.2931 C   0  0  0  0  0  0  0  0  0  0  0  0
    2.6475   27.8124    7.2423 C   0  0  0  0  0  0  0  0  0  0  0  0
    1.7538   28.9911    7.1736 C   0  0  0  0  0  0  0  0  0  0  0  0
   -0.1609   30.1373    7.6596 C   0  0  0  0  0  0  0  0  0  0  0  0
    4.9398   25.9029    5.5833 C   0  0  0  0  0  0  0  0  0  0  0  0
    4.0442   28.6751    5.9828 H   0  0  0  0  0  0  0  0  0  0  0  0
   -1.7334   31.4035    7.9207 H   0  0  0  0  0  0  0  0  0  0  0  0
   -2.1663   29.8315    7.8305 H   0  0  0  0  0  0  0  0  0  0  0  0
   -1.4738   30.4109    9.1912 H   0  0  0  0  0  0  0  0  0  0  0  0
    4.6747   22.6903    4.7997 H   0  0  0  0  0  0  0  0  0  0  0  0
    5.4785   25.7705    2.3193 H   0  0  0  0  0  0  0  0  0  0  0  0
    0.7919   25.8687    9.0387 H   0  0  0  0  0  0  0  0  0  0  0  0
   -0.7171   27.6903    9.0288 H   0  0  0  0  0  0  0  0  0  0  0  0
    0.5779   31.8906    6.6236 H   0  0  0  0  0  0  0  0  0  0  0  0
    4.6350   26.3289    7.5719 H   0  0  0  0  0  0  0  0  0  0  0  0
    5.7521   27.2890    6.8669 H   0  0  0  0  0  0  0  0  0  0  0  0
    4.5483   24.1594    6.6872 H   0  0  0  0  0  0  0  0  0  0  0  0
    5.3474   27.3374    4.1199 H   0  0  0  0  0  0  0  0  0  0  0  0
  1  7  2  0  0  0  0
  1  8  1  0  0  0  0
  2  9  1  0  0  0  0
  2 15  2  0  0  0  0
  3 12  1  0  0  0  0
  3 15  1  0  0  0  0
  4 11  1  0  0  0  0
  4 16  2  0  0  0  0
  5 10  1  0  0  0  0
  5 16  1  0  0  0  0
  5 17  1  0  0  0  0
  6 17  1  0  0  0  0
  7 13  1  0  0  0  0
  8 14  2  0  0  0  0
  9 10  2  0  0  0  0
 11 17  2  0  0  0  0
 12 18  1  0  0  0  0
 13 18  2  0  0  0  0
 14 18  1  0  0  0  0
 15 16  1  0  0  0  0
  3 19  1  0  0  0  0
  6 20  1  0  0  0  0
  6 21  1  0  0  0  0
  6 22  1  0  0  0  0
  7 23  1  0  0  0  0
  8 24  1  0  0  0  0
  9 25  1  0  0  0  0
 10 26  1  0  0  0  0
 11 27  1  0  0  0  0
 12 28  1  0  0  0  0
 12 29  1  0  0  0  0
 13 30  1  0  0  0  0
 14 31  1  0  0  0  0
M  END
$$$$
