SCF_A_501
          05071912473D 1   1.00000     0.00000     0
            
 38 41  0  0  0  0            999 V2000
   -0.3875   27.5507   11.8398 F   0  0  0  0  0  0  0  0  0  0  0  0
    1.4754   30.3600    6.8405 N   0  0  0  0  0  0  0  0  0  0  0  0
    5.0438   24.1173    4.7196 N   0  0  0  0  0  0  0  0  0  0  0  0
    3.1906   28.2046    6.9063 N   0  0  0  0  0  0  0  0  0  0  0  0
   -0.3986   28.2790    9.0225 N   0  0  0  0  0  0  0  0  0  0  0  0
    1.2113   29.2124    7.4970 N   0  0  0  0  0  0  0  0  0  0  0  0
    0.4675   31.1956    7.1687 C   0  0  0  0  0  0  0  0  0  0  0  0
    4.7292   23.9212    6.0205 C   0  0  0  0  0  0  0  0  0  0  0  0
    5.1386   25.3956    4.2879 C   0  0  0  0  0  0  0  0  0  0  0  0
    4.3243   27.4255    7.3569 C   0  0  0  0  0  0  0  0  0  0  0  0
   -0.8920   23.9027   11.4684 C   0  0  0  0  0  0  0  0  0  0  0  0
   -0.5203   23.6823   10.1449 C   0  0  0  0  0  0  0  0  0  0  0  0
   -0.4704   30.5756    8.0371 C   0  0  0  0  0  0  0  0  0  0  0  0
    4.4713   24.9807    6.9212 C   0  0  0  0  0  0  0  0  0  0  0  0
    4.8825   26.5051    5.1123 C   0  0  0  0  0  0  0  0  0  0  0  0
   -0.8254   25.1787   12.0287 C   0  0  0  0  0  0  0  0  0  0  0  0
   -0.0983   24.7669    9.3665 C   0  0  0  0  0  0  0  0  0  0  0  0
    1.6030   27.0837    8.3482 C   0  0  0  0  0  0  0  0  0  0  0  0
    2.0186   28.1325    7.5736 C   0  0  0  0  0  0  0  0  0  0  0  0
    0.0498   29.3000    8.2755 C   0  0  0  0  0  0  0  0  0  0  0  0
   -0.4278   26.2903   11.2399 C   0  0  0  0  0  0  0  0  0  0  0  0
    0.3674   27.1990    9.0388 C   0  0  0  0  0  0  0  0  0  0  0  0
    4.5806   26.2858    6.4502 C   0  0  0  0  0  0  0  0  0  0  0  0
   -0.0501   26.0782    9.8873 C   0  0  0  0  0  0  0  0  0  0  0  0
    3.2749   28.7946    6.1033 H   0  0  0  0  0  0  0  0  0  0  0  0
    0.3902   32.1370    6.8404 H   0  0  0  0  0  0  0  0  0  0  0  0
    4.6766   22.9826    6.3615 H   0  0  0  0  0  0  0  0  0  0  0  0
    5.4034   25.5592    3.3375 H   0  0  0  0  0  0  0  0  0  0  0  0
    4.1368   27.0767    8.2751 H   0  0  0  0  0  0  0  0  0  0  0  0
    5.1342   28.0115    7.3819 H   0  0  0  0  0  0  0  0  0  0  0  0
   -1.2111   23.1357   12.0251 H   0  0  0  0  0  0  0  0  0  0  0  0
   -0.5543   22.7619    9.7555 H   0  0  0  0  0  0  0  0  0  0  0  0
   -1.3171   30.9660    8.3987 H   0  0  0  0  0  0  0  0  0  0  0  0
    4.2172   24.7970    7.8708 H   0  0  0  0  0  0  0  0  0  0  0  0
    4.9169   27.4338    4.7428 H   0  0  0  0  0  0  0  0  0  0  0  0
   -1.0592   25.3112   12.9919 H   0  0  0  0  0  0  0  0  0  0  0  0
    0.1759   24.6087    8.4179 H   0  0  0  0  0  0  0  0  0  0  0  0
    2.1570   26.2549    8.4263 H   0  0  0  0  0  0  0  0  0  0  0  0
  1 21  1  0  0  0  0
  2  6  1  0  0  0  0
  2  7  2  0  0  0  0
  3  8  2  0  0  0  0
  3  9  1  0  0  0  0
  4 10  1  0  0  0  0
  4 19  1  0  0  0  0
  5 20  1  0  0  0  0
  5 22  2  0  0  0  0
  6 19  1  0  0  0  0
  6 20  1  0  0  0  0
  7 13  1  0  0  0  0
  8 14  1  0  0  0  0
  9 15  2  0  0  0  0
 10 23  1  0  0  0  0
 11 12  2  0  0  0  0
 11 16  1  0  0  0  0
 12 17  1  0  0  0  0
 13 20  2  0  0  0  0
 14 23  2  0  0  0  0
 15 23  1  0  0  0  0
 16 21  2  0  0  0  0
 17 24  2  0  0  0  0
 18 19  2  0  0  0  0
 18 22  1  0  0  0  0
 21 24  1  0  0  0  0
 22 24  1  0  0  0  0
  4 25  1  0  0  0  0
  7 26  1  0  0  0  0
  8 27  1  0  0  0  0
  9 28  1  0  0  0  0
 10 29  1  0  0  0  0
 10 30  1  0  0  0  0
 11 31  1  0  0  0  0
 12 32  1  0  0  0  0
 13 33  1  0  0  0  0
 14 34  1  0  0  0  0
 15 35  1  0  0  0  0
 16 36  1  0  0  0  0
 17 37  1  0  0  0  0
 18 38  1  0  0  0  0
M  END
$$$$
