SCQ_A_501
          05071912473D 1   1.00000     0.00000     0
            
 38 41  0  0  0  0            999 V2000
   -2.0229   31.1078    8.4807 Br  0  0  0  0  0  0  0  0  0  0  0  0
    1.6775   30.3764    7.0823 N   0  0  0  0  0  0  0  0  0  0  0  0
    4.9298   25.6015    4.3772 N   0  0  0  0  0  0  0  0  0  0  0  0
    4.4428   23.8787    5.9848 N   0  0  0  0  0  0  0  0  0  0  0  0
    3.4645   28.1488    7.3415 N   0  0  0  0  0  0  0  0  0  0  0  0
    1.4106   29.2076    7.7849 N   0  0  0  0  0  0  0  0  0  0  0  0
    4.7310   24.3314    4.7515 C   0  0  0  0  0  0  0  0  0  0  0  0
    0.5971   31.1402    7.2243 C   0  0  0  0  0  0  0  0  0  0  0  0
    4.8573   26.5099    5.3503 C   0  0  0  0  0  0  0  0  0  0  0  0
    4.3861   24.8119    6.9424 C   0  0  0  0  0  0  0  0  0  0  0  0
    4.4846   27.1924    7.7582 C   0  0  0  0  0  0  0  0  0  0  0  0
   -0.9787   23.6992   11.5669 C   0  0  0  0  0  0  0  0  0  0  0  0
   -0.7104   24.9048   12.2166 C   0  0  0  0  0  0  0  0  0  0  0  0
   -0.7888   23.5997   10.1861 C   0  0  0  0  0  0  0  0  0  0  0  0
   -0.2501   26.0099   11.4856 C   0  0  0  0  0  0  0  0  0  0  0  0
   -0.3347   24.7039    9.4588 C   0  0  0  0  0  0  0  0  0  0  0  0
    1.7260   27.0413    8.6961 C   0  0  0  0  0  0  0  0  0  0  0  0
   -0.3595   28.1851    9.1332 C   0  0  0  0  0  0  0  0  0  0  0  0
    2.2215   28.1092    7.9380 C   0  0  0  0  0  0  0  0  0  0  0  0
   -0.3612   30.4826    8.0040 C   0  0  0  0  0  0  0  0  0  0  0  0
    4.5957   26.1700    6.6819 C   0  0  0  0  0  0  0  0  0  0  0  0
    0.1704   29.2636    8.3476 C   0  0  0  0  0  0  0  0  0  0  0  0
   -0.0567   25.9134   10.0959 C   0  0  0  0  0  0  0  0  0  0  0  0
    0.4206   27.0789    9.3010 C   0  0  0  0  0  0  0  0  0  0  0  0
    3.6641   28.8247    6.6321 H   0  0  0  0  0  0  0  0  0  0  0  0
    4.8052   23.6408    4.0321 H   0  0  0  0  0  0  0  0  0  0  0  0
    0.4859   32.0526    6.8304 H   0  0  0  0  0  0  0  0  0  0  0  0
    4.9953   27.4730    5.1191 H   0  0  0  0  0  0  0  0  0  0  0  0
    4.1861   24.5273    7.8800 H   0  0  0  0  0  0  0  0  0  0  0  0
    4.2157   26.7574    8.6176 H   0  0  0  0  0  0  0  0  0  0  0  0
    5.3612   27.6580    7.8803 H   0  0  0  0  0  0  0  0  0  0  0  0
   -1.3054   22.9101   12.0872 H   0  0  0  0  0  0  0  0  0  0  0  0
   -0.8464   24.9809   13.2044 H   0  0  0  0  0  0  0  0  0  0  0  0
   -0.9780   22.7370    9.7173 H   0  0  0  0  0  0  0  0  0  0  0  0
   -0.0583   26.8716   11.9554 H   0  0  0  0  0  0  0  0  0  0  0  0
   -0.2076   24.6258    8.4700 H   0  0  0  0  0  0  0  0  0  0  0  0
    2.2956   26.2290    8.8208 H   0  0  0  0  0  0  0  0  0  0  0  0
   -1.2696   28.2429    9.5435 H   0  0  0  0  0  0  0  0  0  0  0  0
  1 20  1  0  0  0  0
  2  6  1  0  0  0  0
  2  8  2  0  0  0  0
  3  7  2  0  0  0  0
  3  9  1  0  0  0  0
  4  7  1  0  0  0  0
  4 10  2  0  0  0  0
  5 11  1  0  0  0  0
  5 19  1  0  0  0  0
  6 19  1  0  0  0  0
  6 22  1  0  0  0  0
  8 20  1  0  0  0  0
  9 21  2  0  0  0  0
 10 21  1  0  0  0  0
 11 21  1  0  0  0  0
 12 13  2  0  0  0  0
 12 14  1  0  0  0  0
 13 15  1  0  0  0  0
 14 16  2  0  0  0  0
 15 23  2  0  0  0  0
 16 23  1  0  0  0  0
 17 19  2  0  0  0  0
 17 24  1  0  0  0  0
 18 22  1  0  0  0  0
 18 24  2  0  0  0  0
 20 22  2  0  0  0  0
 23 24  1  0  0  0  0
  5 25  1  0  0  0  0
  7 26  1  0  0  0  0
  8 27  1  0  0  0  0
  9 28  1  0  0  0  0
 10 29  1  0  0  0  0
 11 30  1  0  0  0  0
 11 31  1  0  0  0  0
 12 32  1  0  0  0  0
 13 33  1  0  0  0  0
 14 34  1  0  0  0  0
 15 35  1  0  0  0  0
 16 36  1  0  0  0  0
 17 37  1  0  0  0  0
 18 38  1  0  0  0  0
M  END
$$$$
