SCX_A_501
          05071912473D 1   1.00000     0.00000     0
            
 45 48  0  0  0  0            999 V2000
   -0.1104   27.7171   12.0387 F   0  0  0  0  0  0  0  0  0  0  0  0
   -0.3032   24.6245    8.4465 F   0  0  0  0  0  0  0  0  0  0  0  0
    4.9262   23.0288    4.4419 N   0  0  0  0  0  0  0  0  0  0  0  0
    1.4950   30.3967    6.9272 N   0  0  0  0  0  0  0  0  0  0  0  0
    4.7383   23.9289    6.5584 N   0  0  0  0  0  0  0  0  0  0  0  0
    4.9054   25.3256    4.6324 N   0  0  0  0  0  0  0  0  0  0  0  0
    3.3609   28.2476    7.3678 N   0  0  0  0  0  0  0  0  0  0  0  0
   -0.5036   28.3462    9.1079 N   0  0  0  0  0  0  0  0  0  0  0  0
    1.2280   29.2791    7.6930 N   0  0  0  0  0  0  0  0  0  0  0  0
   -3.0494   30.1165    7.8941 C   0  0  0  0  0  0  0  0  0  0  0  0
    0.4010   31.1504    7.0668 C   0  0  0  0  0  0  0  0  0  0  0  0
    4.6506   25.0338    7.3217 C   0  0  0  0  0  0  0  0  0  0  0  0
    4.8057   26.3932    5.4351 C   0  0  0  0  0  0  0  0  0  0  0  0
    4.5574   27.4990    7.6959 C   0  0  0  0  0  0  0  0  0  0  0  0
   -1.0413   24.2320   11.9787 C   0  0  0  0  0  0  0  0  0  0  0  0
   -1.9271   31.0712    8.2581 C   0  0  0  0  0  0  0  0  0  0  0  0
   -0.7843   25.5244   12.4413 C   0  0  0  0  0  0  0  0  0  0  0  0
   -0.8693   23.9423   10.6258 C   0  0  0  0  0  0  0  0  0  0  0  0
    1.6357   27.1742    8.7101 C   0  0  0  0  0  0  0  0  0  0  0  0
    4.8557   24.1256    5.2328 C   0  0  0  0  0  0  0  0  0  0  0  0
   -0.3422   26.5081   11.5514 C   0  0  0  0  0  0  0  0  0  0  0  0
   -0.4456   24.9488    9.7425 C   0  0  0  0  0  0  0  0  0  0  0  0
    2.0977   28.1864    7.9391 C   0  0  0  0  0  0  0  0  0  0  0  0
   -0.0287   29.3428    8.2842 C   0  0  0  0  0  0  0  0  0  0  0  0
    0.2733   27.3311    9.3005 C   0  0  0  0  0  0  0  0  0  0  0  0
    4.6945   26.3112    6.8187 C   0  0  0  0  0  0  0  0  0  0  0  0
   -0.5911   30.5408    7.8878 C   0  0  0  0  0  0  0  0  0  0  0  0
   -0.1773   26.2403   10.1955 C   0  0  0  0  0  0  0  0  0  0  0  0
    5.0139   23.1315    3.4511 H   0  0  0  0  0  0  0  0  0  0  0  0
    4.8906   22.1159    4.8487 H   0  0  0  0  0  0  0  0  0  0  0  0
    3.4599   28.9045    6.6203 H   0  0  0  0  0  0  0  0  0  0  0  0
   -3.9265   30.5155    8.1617 H   0  0  0  0  0  0  0  0  0  0  0  0
   -3.0436   29.9561    6.9071 H   0  0  0  0  0  0  0  0  0  0  0  0
   -2.9178   29.2489    8.3736 H   0  0  0  0  0  0  0  0  0  0  0  0
    0.2900   32.0479    6.6400 H   0  0  0  0  0  0  0  0  0  0  0  0
    4.5478   24.9185    8.3097 H   0  0  0  0  0  0  0  0  0  0  0  0
    4.8115   27.3008    5.0154 H   0  0  0  0  0  0  0  0  0  0  0  0
    4.5051   27.1986    8.6483 H   0  0  0  0  0  0  0  0  0  0  0  0
    5.3560   28.0888    7.5759 H   0  0  0  0  0  0  0  0  0  0  0  0
   -1.3460   23.5208   12.6122 H   0  0  0  0  0  0  0  0  0  0  0  0
   -1.9475   31.2294    9.2453 H   0  0  0  0  0  0  0  0  0  0  0  0
   -2.0733   31.9366    7.7788 H   0  0  0  0  0  0  0  0  0  0  0  0
   -0.9163   25.7459   13.4075 H   0  0  0  0  0  0  0  0  0  0  0  0
   -1.0474   23.0192   10.2849 H   0  0  0  0  0  0  0  0  0  0  0  0
    2.1844   26.3551    8.8775 H   0  0  0  0  0  0  0  0  0  0  0  0
  1 21  1  0  0  0  0
  2 22  1  0  0  0  0
  3 20  1  0  0  0  0
  4  9  1  0  0  0  0
  4 11  2  0  0  0  0
  5 12  1  0  0  0  0
  5 20  2  0  0  0  0
  6 13  2  0  0  0  0
  6 20  1  0  0  0  0
  7 14  1  0  0  0  0
  7 23  1  0  0  0  0
  8 24  1  0  0  0  0
  8 25  2  0  0  0  0
  9 23  1  0  0  0  0
  9 24  1  0  0  0  0
 10 16  1  0  0  0  0
 11 27  1  0  0  0  0
 12 26  2  0  0  0  0
 13 26  1  0  0  0  0
 14 26  1  0  0  0  0
 15 17  2  0  0  0  0
 15 18  1  0  0  0  0
 16 27  1  0  0  0  0
 17 21  1  0  0  0  0
 18 22  2  0  0  0  0
 19 23  2  0  0  0  0
 19 25  1  0  0  0  0
 21 28  2  0  0  0  0
 22 28  1  0  0  0  0
 24 27  2  0  0  0  0
 25 28  1  0  0  0  0
  3 29  1  0  0  0  0
  3 30  1  0  0  0  0
  7 31  1  0  0  0  0
 10 32  1  0  0  0  0
 10 33  1  0  0  0  0
 10 34  1  0  0  0  0
 11 35  1  0  0  0  0
 12 36  1  0  0  0  0
 13 37  1  0  0  0  0
 14 38  1  0  0  0  0
 14 39  1  0  0  0  0
 15 40  1  0  0  0  0
 16 41  1  0  0  0  0
 16 42  1  0  0  0  0
 17 43  1  0  0  0  0
 18 44  1  0  0  0  0
 19 45  1  0  0  0  0
M  END
$$$$
