SCZ_A_501
          05071912473D 1   1.00000     0.00000     0
            
 45 49  0  0  0  0            999 V2000
    1.8929   30.0023    6.7139 N   0  0  0  0  0  0  0  0  0  0  0  0
    5.2586   25.2901    3.5563 N   0  0  0  0  0  0  0  0  0  0  0  0
    3.8762   27.9703    6.7521 N   0  0  0  0  0  0  0  0  0  0  0  0
    0.2469   27.6040    8.8173 N   0  0  0  0  0  0  0  0  0  0  0  0
    1.7803   28.8129    7.4133 N   0  0  0  0  0  0  0  0  0  0  0  0
    5.2831   24.0264    4.0264 C   0  0  0  0  0  0  0  0  0  0  0  0
    0.7689   30.6572    7.0051 C   0  0  0  0  0  0  0  0  0  0  0  0
    5.1877   26.2867    4.4843 C   0  0  0  0  0  0  0  0  0  0  0  0
    5.1242   27.2326    6.8025 C   0  0  0  0  0  0  0  0  0  0  0  0
    5.2268   23.7032    5.3724 C   0  0  0  0  0  0  0  0  0  0  0  0
    0.2259   23.0809   11.0665 C   0  0  0  0  0  0  0  0  0  0  0  0
   -0.7743   23.9726   10.6927 C   0  0  0  0  0  0  0  0  0  0  0  0
    1.5551   23.3289   10.6898 C   0  0  0  0  0  0  0  0  0  0  0  0
    5.1583   24.7427    6.2971 C   0  0  0  0  0  0  0  0  0  0  0  0
   -0.4470   25.1286    9.9781 C   0  0  0  0  0  0  0  0  0  0  0  0
    1.8760   24.4799    9.9511 C   0  0  0  0  0  0  0  0  0  0  0  0
   -2.4908   29.4278    8.7379 C   0  0  0  0  0  0  0  0  0  0  0  0
   -1.8571   30.3850    9.7260 C   0  0  0  0  0  0  0  0  0  0  0  0
    2.4400   26.6394    8.1339 C   0  0  0  0  0  0  0  0  0  0  0  0
    2.7296   27.7647    7.4453 C   0  0  0  0  0  0  0  0  0  0  0  0
    0.5642   28.7253    8.1016 C   0  0  0  0  0  0  0  0  0  0  0  0
    1.1566   26.6239    8.8356 C   0  0  0  0  0  0  0  0  0  0  0  0
    5.1550   26.0700    5.8483 C   0  0  0  0  0  0  0  0  0  0  0  0
    0.8644   25.3811    9.5959 C   0  0  0  0  0  0  0  0  0  0  0  0
   -1.4540   30.4043    8.2766 C   0  0  0  0  0  0  0  0  0  0  0  0
   -0.0923   29.9207    7.8375 C   0  0  0  0  0  0  0  0  0  0  0  0
    3.8593   28.7408    6.1149 H   0  0  0  0  0  0  0  0  0  0  0  0
    5.3456   23.2790    3.3649 H   0  0  0  0  0  0  0  0  0  0  0  0
    0.5603   31.5750    6.6673 H   0  0  0  0  0  0  0  0  0  0  0  0
    5.1577   27.2314    4.1578 H   0  0  0  0  0  0  0  0  0  0  0  0
    5.2531   26.8864    7.7317 H   0  0  0  0  0  0  0  0  0  0  0  0
    5.8723   27.8548    6.5717 H   0  0  0  0  0  0  0  0  0  0  0  0
    5.2350   22.7492    5.6721 H   0  0  0  0  0  0  0  0  0  0  0  0
   -0.0010   22.2668   11.6011 H   0  0  0  0  0  0  0  0  0  0  0  0
   -1.7266   23.7868   10.9350 H   0  0  0  0  0  0  0  0  0  0  0  0
    2.2753   22.6848   10.9479 H   0  0  0  0  0  0  0  0  0  0  0  0
    5.1117   24.5428    7.2758 H   0  0  0  0  0  0  0  0  0  0  0  0
   -1.1657   25.7817    9.7392 H   0  0  0  0  0  0  0  0  0  0  0  0
    2.8225   24.6551    9.6800 H   0  0  0  0  0  0  0  0  0  0  0  0
   -3.4462   29.5477    8.4679 H   0  0  0  0  0  0  0  0  0  0  0  0
   -2.2759   28.4520    8.7787 H   0  0  0  0  0  0  0  0  0  0  0  0
   -1.2219   30.0430   10.4185 H   0  0  0  0  0  0  0  0  0  0  0  0
   -2.3921   31.1387   10.1076 H   0  0  0  0  0  0  0  0  0  0  0  0
    3.0673   25.8612    8.1623 H   0  0  0  0  0  0  0  0  0  0  0  0
   -1.8117   31.1778    7.7534 H   0  0  0  0  0  0  0  0  0  0  0  0
  1  5  1  0  0  0  0
  1  7  2  0  0  0  0
  2  6  2  0  0  0  0
  2  8  1  0  0  0  0
  3  9  1  0  0  0  0
  3 20  1  0  0  0  0
  4 21  1  0  0  0  0
  4 22  2  0  0  0  0
  5 20  1  0  0  0  0
  5 21  1  0  0  0  0
  6 10  1  0  0  0  0
  7 26  1  0  0  0  0
  8 23  2  0  0  0  0
  9 23  1  0  0  0  0
 10 14  2  0  0  0  0
 11 12  2  0  0  0  0
 11 13  1  0  0  0  0
 12 15  1  0  0  0  0
 13 16  2  0  0  0  0
 14 23  1  0  0  0  0
 15 24  2  0  0  0  0
 16 24  1  0  0  0  0
 17 18  1  0  0  0  0
 17 25  1  0  0  0  0
 18 25  1  0  0  0  0
 19 20  2  0  0  0  0
 19 22  1  0  0  0  0
 21 26  2  0  0  0  0
 22 24  1  0  0  0  0
 25 26  1  0  0  0  0
  3 27  1  0  0  0  0
  6 28  1  0  0  0  0
  7 29  1  0  0  0  0
  8 30  1  0  0  0  0
  9 31  1  0  0  0  0
  9 32  1  0  0  0  0
 10 33  1  0  0  0  0
 11 34  1  0  0  0  0
 12 35  1  0  0  0  0
 13 36  1  0  0  0  0
 14 37  1  0  0  0  0
 15 38  1  0  0  0  0
 16 39  1  0  0  0  0
 17 40  1  0  0  0  0
 17 41  1  0  0  0  0
 18 42  1  0  0  0  0
 18 43  1  0  0  0  0
 19 44  1  0  0  0  0
 25 45  1  0  0  0  0
M  END
$$$$
