2SC_A_501
          05071912473D 1   1.00000     0.00000     0
            
 42 45  0  0  0  0            999 V2000
   -1.3587   30.8269    9.6501 O   0  0  0  0  0  0  0  0  0  0  0  0
    1.9601   30.1885    6.6161 N   0  0  0  0  0  0  0  0  0  0  0  0
    5.5996   25.7022    3.1719 N   0  0  0  0  0  0  0  0  0  0  0  0
    3.8693   28.0585    6.4642 N   0  0  0  0  0  0  0  0  0  0  0  0
    0.2262   27.7546    8.5943 N   0  0  0  0  0  0  0  0  0  0  0  0
    1.7967   28.9614    7.2108 N   0  0  0  0  0  0  0  0  0  0  0  0
    5.3981   24.4024    3.4892 C   0  0  0  0  0  0  0  0  0  0  0  0
   -1.3705   30.5216    8.2558 C   0  0  0  0  0  0  0  0  0  0  0  0
    0.8647   30.8710    6.9653 C   0  0  0  0  0  0  0  0  0  0  0  0
    5.4782   26.5993    4.1811 C   0  0  0  0  0  0  0  0  0  0  0  0
    5.1066   27.3242    6.5441 C   0  0  0  0  0  0  0  0  0  0  0  0
    5.0876   23.9644    4.7740 C   0  0  0  0  0  0  0  0  0  0  0  0
    0.0748   23.1600   10.7303 C   0  0  0  0  0  0  0  0  0  0  0  0
   -0.9313   24.0034   10.2474 C   0  0  0  0  0  0  0  0  0  0  0  0
    1.4219   23.4695   10.5002 C   0  0  0  0  0  0  0  0  0  0  0  0
    5.0077   24.9102    5.7847 C   0  0  0  0  0  0  0  0  0  0  0  0
   -0.5961   25.1694    9.5373 C   0  0  0  0  0  0  0  0  0  0  0  0
    1.7580   24.6344    9.7891 C   0  0  0  0  0  0  0  0  0  0  0  0
    2.3621   26.7429    7.8273 C   0  0  0  0  0  0  0  0  0  0  0  0
    2.7037   27.8720    7.1755 C   0  0  0  0  0  0  0  0  0  0  0  0
    0.6056   28.8871    7.9052 C   0  0  0  0  0  0  0  0  0  0  0  0
    1.0670   26.7418    8.5564 C   0  0  0  0  0  0  0  0  0  0  0  0
    5.1921   26.2623    5.4979 C   0  0  0  0  0  0  0  0  0  0  0  0
   -0.0349   30.1141    7.7413 C   0  0  0  0  0  0  0  0  0  0  0  0
    0.7451   25.4839    9.3061 C   0  0  0  0  0  0  0  0  0  0  0  0
   -2.2776   31.0933    9.9408 H   0  0  0  0  0  0  0  0  0  0  0  0
    3.8543   28.8067    5.8009 H   0  0  0  0  0  0  0  0  0  0  0  0
    5.4763   23.7200    2.7624 H   0  0  0  0  0  0  0  0  0  0  0  0
   -1.6720   31.3324    7.7541 H   0  0  0  0  0  0  0  0  0  0  0  0
   -2.0151   29.7734    8.0984 H   0  0  0  0  0  0  0  0  0  0  0  0
    0.7007   31.8218    6.7023 H   0  0  0  0  0  0  0  0  0  0  0  0
    5.6028   27.5673    3.9631 H   0  0  0  0  0  0  0  0  0  0  0  0
    5.1708   26.8960    7.4455 H   0  0  0  0  0  0  0  0  0  0  0  0
    5.8685   27.9603    6.4223 H   0  0  0  0  0  0  0  0  0  0  0  0
    4.9269   22.9955    4.9623 H   0  0  0  0  0  0  0  0  0  0  0  0
   -0.1678   22.3349   11.2405 H   0  0  0  0  0  0  0  0  0  0  0  0
   -1.8918   23.7763   10.4079 H   0  0  0  0  0  0  0  0  0  0  0  0
    2.1412   22.8640   10.8405 H   0  0  0  0  0  0  0  0  0  0  0  0
    4.8170   24.6215    6.7230 H   0  0  0  0  0  0  0  0  0  0  0  0
   -1.3173   25.7732    9.1980 H   0  0  0  0  0  0  0  0  0  0  0  0
    2.7185   24.8600    9.6261 H   0  0  0  0  0  0  0  0  0  0  0  0
    2.9560   25.9384    7.8207 H   0  0  0  0  0  0  0  0  0  0  0  0
  1  8  1  0  0  0  0
  2  6  1  0  0  0  0
  2  9  2  0  0  0  0
  3  7  2  0  0  0  0
  3 10  1  0  0  0  0
  4 11  1  0  0  0  0
  4 20  1  0  0  0  0
  5 21  1  0  0  0  0
  5 22  2  0  0  0  0
  6 20  1  0  0  0  0
  6 21  1  0  0  0  0
  7 12  1  0  0  0  0
  8 24  1  0  0  0  0
  9 24  1  0  0  0  0
 10 23  2  0  0  0  0
 11 23  1  0  0  0  0
 12 16  2  0  0  0  0
 13 14  2  0  0  0  0
 13 15  1  0  0  0  0
 14 17  1  0  0  0  0
 15 18  2  0  0  0  0
 16 23  1  0  0  0  0
 17 25  2  0  0  0  0
 18 25  1  0  0  0  0
 19 20  2  0  0  0  0
 19 22  1  0  0  0  0
 21 24  2  0  0  0  0
 22 25  1  0  0  0  0
  1 26  1  0  0  0  0
  4 27  1  0  0  0  0
  7 28  1  0  0  0  0
  8 29  1  0  0  0  0
  8 30  1  0  0  0  0
  9 31  1  0  0  0  0
 10 32  1  0  0  0  0
 11 33  1  0  0  0  0
 11 34  1  0  0  0  0
 12 35  1  0  0  0  0
 13 36  1  0  0  0  0
 14 37  1  0  0  0  0
 15 38  1  0  0  0  0
 16 39  1  0  0  0  0
 17 40  1  0  0  0  0
 18 41  1  0  0  0  0
 19 42  1  0  0  0  0
M  END
$$$$
