3SC_A_501
          05071912473D 1   1.00000     0.00000     0
            
 40 43  0  0  0  0            999 V2000
   -1.3084   25.1428   13.7116 Cl  0  0  0  0  0  0  0  0  0  0  0  0
   -0.3868   27.6874   11.9924 Cl  0  0  0  0  0  0  0  0  0  0  0  0
   -2.1356   30.9786    8.2359 S   0  0  0  0  0  0  0  0  0  0  0  0
   -3.3181   28.5907    9.4273 N   0  0  0  0  0  0  0  0  0  0  0  0
    1.5601   30.3046    6.9180 N   0  0  0  0  0  0  0  0  0  0  0  0
    4.6667   24.0294    4.7423 N   0  0  0  0  0  0  0  0  0  0  0  0
    3.3905   28.1201    7.2419 N   0  0  0  0  0  0  0  0  0  0  0  0
   -0.4813   28.1273    8.9267 N   0  0  0  0  0  0  0  0  0  0  0  0
    1.2865   29.1430    7.6214 N   0  0  0  0  0  0  0  0  0  0  0  0
   -2.8564   29.5830    8.9340 C   0  0  0  0  0  0  0  0  0  0  0  0
    4.7535   25.3308    4.3445 C   0  0  0  0  0  0  0  0  0  0  0  0
    4.5328   23.8160    6.0540 C   0  0  0  0  0  0  0  0  0  0  0  0
    0.4409   31.0358    7.0557 C   0  0  0  0  0  0  0  0  0  0  0  0
    4.5344   27.2978    7.5401 C   0  0  0  0  0  0  0  0  0  0  0  0
   -0.6749   23.6331   10.0941 C   0  0  0  0  0  0  0  0  0  0  0  0
   -0.9887   23.7956   11.4376 C   0  0  0  0  0  0  0  0  0  0  0  0
    4.7185   26.4123    5.1967 C   0  0  0  0  0  0  0  0  0  0  0  0
    4.4890   24.8392    6.9985 C   0  0  0  0  0  0  0  0  0  0  0  0
   -0.2545   24.7199    9.3265 C   0  0  0  0  0  0  0  0  0  0  0  0
    1.6694   26.9961    8.5557 C   0  0  0  0  0  0  0  0  0  0  0  0
   -0.9050   25.0472   12.0346 C   0  0  0  0  0  0  0  0  0  0  0  0
   -0.4920   26.1501   11.2796 C   0  0  0  0  0  0  0  0  0  0  0  0
   -0.5465   30.3643    7.8339 C   0  0  0  0  0  0  0  0  0  0  0  0
    2.1343   28.0467    7.8200 C   0  0  0  0  0  0  0  0  0  0  0  0
    0.0094   29.1637    8.1920 C   0  0  0  0  0  0  0  0  0  0  0  0
    0.2874   27.1195    9.0928 C   0  0  0  0  0  0  0  0  0  0  0  0
    4.5805   26.1683    6.5595 C   0  0  0  0  0  0  0  0  0  0  0  0
   -0.1706   25.9795    9.9195 C   0  0  0  0  0  0  0  0  0  0  0  0
    3.5172   28.8213    6.5402 H   0  0  0  0  0  0  0  0  0  0  0  0
    4.8492   25.5127    3.3658 H   0  0  0  0  0  0  0  0  0  0  0  0
    4.4602   22.8717    6.3752 H   0  0  0  0  0  0  0  0  0  0  0  0
    0.3155   31.9449    6.6584 H   0  0  0  0  0  0  0  0  0  0  0  0
    4.4552   26.9347    8.4684 H   0  0  0  0  0  0  0  0  0  0  0  0
    5.3695   27.8428    7.4654 H   0  0  0  0  0  0  0  0  0  0  0  0
   -0.7509   22.7292    9.6733 H   0  0  0  0  0  0  0  0  0  0  0  0
   -1.2770   23.0058   11.9789 H   0  0  0  0  0  0  0  0  0  0  0  0
    4.7903   27.3461    4.8460 H   0  0  0  0  0  0  0  0  0  0  0  0
    4.3941   24.6299    7.9717 H   0  0  0  0  0  0  0  0  0  0  0  0
   -0.0164   24.5972    8.3630 H   0  0  0  0  0  0  0  0  0  0  0  0
    2.2288   26.1847    8.7253 H   0  0  0  0  0  0  0  0  0  0  0  0
  1 21  1  0  0  0  0
  2 22  1  0  0  0  0
  3 10  1  0  0  0  0
  3 23  1  0  0  0  0
  4 10  3  0  0  0  0
  5  9  1  0  0  0  0
  5 13  2  0  0  0  0
  6 11  2  0  0  0  0
  6 12  1  0  0  0  0
  7 14  1  0  0  0  0
  7 24  1  0  0  0  0
  8 25  1  0  0  0  0
  8 26  2  0  0  0  0
  9 24  1  0  0  0  0
  9 25  1  0  0  0  0
 11 17  1  0  0  0  0
 12 18  2  0  0  0  0
 13 23  1  0  0  0  0
 14 27  1  0  0  0  0
 15 16  2  0  0  0  0
 15 19  1  0  0  0  0
 16 21  1  0  0  0  0
 17 27  2  0  0  0  0
 18 27  1  0  0  0  0
 19 28  2  0  0  0  0
 20 24  2  0  0  0  0
 20 26  1  0  0  0  0
 21 22  2  0  0  0  0
 22 28  1  0  0  0  0
 23 25  2  0  0  0  0
 26 28  1  0  0  0  0
  7 29  1  0  0  0  0
 11 30  1  0  0  0  0
 12 31  1  0  0  0  0
 13 32  1  0  0  0  0
 14 33  1  0  0  0  0
 14 34  1  0  0  0  0
 15 35  1  0  0  0  0
 16 36  1  0  0  0  0
 17 37  1  0  0  0  0
 18 38  1  0  0  0  0
 19 39  1  0  0  0  0
 20 40  1  0  0  0  0
M  END
$$$$
