5SC_A_501
          05071912473D 1   1.00000     0.00000     0
            
 42 45  0  0  0  0            999 V2000
   -1.7357   31.3172    8.8355 Br  0  0  0  0  0  0  0  0  0  0  0  0
    4.8449   25.8955    2.5153 O   0  5  0  0  0  0  0  0  0  0  0  0
    1.6528   30.2926    6.8444 N   0  0  0  0  0  0  0  0  0  0  0  0
    3.3192   28.1044    6.9229 N   0  0  0  0  0  0  0  0  0  0  0  0
   -0.3712   28.1695    8.8767 N   0  0  0  0  0  0  0  0  0  0  0  0
    4.8407   25.5119    3.7817 N   0  3  0  0  0  0  0  0  0  0  0  0
    1.3104   29.1148    7.4624 N   0  0  0  0  0  0  0  0  0  0  0  0
   -0.3961   27.2989   11.7642 C   0  0  0  0  0  0  0  0  0  0  0  0
    0.7108   31.1540    7.1959 C   0  0  0  0  0  0  0  0  0  0  0  0
    4.4076   27.1417    7.3041 C   0  0  0  0  0  0  0  0  0  0  0  0
    4.9271   24.1109    4.1766 C   0  0  0  0  0  0  0  0  0  0  0  0
    4.6798   26.4693    4.8768 C   0  0  0  0  0  0  0  0  0  0  0  0
    4.8584   23.7274    5.4941 C   0  0  0  0  0  0  0  0  0  0  0  0
   -1.1079   23.6615   10.9614 C   0  0  0  0  0  0  0  0  0  0  0  0
   -0.8101   23.5693    9.6035 C   0  0  0  0  0  0  0  0  0  0  0  0
    4.7028   24.7070    6.5171 C   0  0  0  0  0  0  0  0  0  0  0  0
   -0.9971   24.8532   11.6400 C   0  0  0  0  0  0  0  0  0  0  0  0
   -0.3245   24.6962    8.9302 C   0  0  0  0  0  0  0  0  0  0  0  0
    1.5903   26.9717    8.2547 C   0  0  0  0  0  0  0  0  0  0  0  0
   -0.2491   30.5151    8.0213 C   0  0  0  0  0  0  0  0  0  0  0  0
    2.0916   28.0230    7.5356 C   0  0  0  0  0  0  0  0  0  0  0  0
    0.1742   29.2113    8.1541 C   0  0  0  0  0  0  0  0  0  0  0  0
    0.3312   27.0637    8.8727 C   0  0  0  0  0  0  0  0  0  0  0  0
    4.6022   26.1059    6.1958 C   0  0  0  0  0  0  0  0  0  0  0  0
   -0.5168   26.0053   10.9843 C   0  0  0  0  0  0  0  0  0  0  0  0
   -0.1816   25.9137    9.6115 C   0  0  0  0  0  0  0  0  0  0  0  0
    3.4872   28.8017    6.2261 H   0  0  0  0  0  0  0  0  0  0  0  0
   -0.0439   28.0178   11.1649 H   0  0  0  0  0  0  0  0  0  0  0  0
   -1.2959   27.5646   12.1104 H   0  0  0  0  0  0  0  0  0  0  0  0
    0.2311   27.1680   12.5320 H   0  0  0  0  0  0  0  0  0  0  0  0
    0.6806   32.1146    6.9197 H   0  0  0  0  0  0  0  0  0  0  0  0
    4.1553   26.6758    8.1522 H   0  0  0  0  0  0  0  0  0  0  0  0
    5.2611   27.6444    7.4411 H   0  0  0  0  0  0  0  0  0  0  0  0
    5.0393   23.4115    3.4706 H   0  0  0  0  0  0  0  0  0  0  0  0
    4.6234   27.4416    4.6502 H   0  0  0  0  0  0  0  0  0  0  0  0
    4.9176   22.7588    5.7356 H   0  0  0  0  0  0  0  0  0  0  0  0
   -1.4084   22.8442   11.4531 H   0  0  0  0  0  0  0  0  0  0  0  0
   -0.9421   22.7068    9.1148 H   0  0  0  0  0  0  0  0  0  0  0  0
    4.6630   24.4176    7.4735 H   0  0  0  0  0  0  0  0  0  0  0  0
   -1.2588   24.9025   12.6039 H   0  0  0  0  0  0  0  0  0  0  0  0
   -0.0794   24.6332    7.9627 H   0  0  0  0  0  0  0  0  0  0  0  0
    2.1246   26.1308    8.3412 H   0  0  0  0  0  0  0  0  0  0  0  0
  1 20  1  0  0  0  0
  2  6  1  0  0  0  0
  3  7  1  0  0  0  0
  3  9  2  0  0  0  0
  4 10  1  0  0  0  0
  4 21  1  0  0  0  0
  5 22  1  0  0  0  0
  5 23  2  0  0  0  0
  6 11  2  0  0  0  0
  6 12  1  0  0  0  0
  7 21  1  0  0  0  0
  7 22  1  0  0  0  0
  8 25  1  0  0  0  0
  9 20  1  0  0  0  0
 10 24  1  0  0  0  0
 11 13  1  0  0  0  0
 12 24  2  0  0  0  0
 13 16  2  0  0  0  0
 14 15  2  0  0  0  0
 14 17  1  0  0  0  0
 15 18  1  0  0  0  0
 16 24  1  0  0  0  0
 17 25  2  0  0  0  0
 18 26  2  0  0  0  0
 19 21  2  0  0  0  0
 19 23  1  0  0  0  0
 20 22  2  0  0  0  0
 23 26  1  0  0  0  0
 25 26  1  0  0  0  0
  4 27  1  0  0  0  0
  8 28  1  0  0  0  0
  8 29  1  0  0  0  0
  8 30  1  0  0  0  0
  9 31  1  0  0  0  0
 10 32  1  0  0  0  0
 10 33  1  0  0  0  0
 11 34  1  0  0  0  0
 12 35  1  0  0  0  0
 13 36  1  0  0  0  0
 14 37  1  0  0  0  0
 15 38  1  0  0  0  0
 16 39  1  0  0  0  0
 17 40  1  0  0  0  0
 18 41  1  0  0  0  0
 19 42  1  0  0  0  0
M  CHG  2   2  -1   6   1
M  END
$$$$
