6SC_A_501
          05071912473D 1   1.00000     0.00000     0
            
 38 41  0  0  0  0            999 V2000
   -1.6918   30.8458    8.4608 Br  0  0  0  0  0  0  0  0  0  0  0  0
    1.8846   30.1575    6.7271 N   0  0  0  0  0  0  0  0  0  0  0  0
    5.1773   24.1763    3.8740 N   0  0  0  0  0  0  0  0  0  0  0  0
    3.7808   28.0537    6.7486 N   0  0  0  0  0  0  0  0  0  0  0  0
    0.0755   27.7896    8.7710 N   0  0  0  0  0  0  0  0  0  0  0  0
    1.7009   28.9767    7.3503 N   0  0  0  0  0  0  0  0  0  0  0  0
    5.2591   25.5007    3.6314 C   0  0  0  0  0  0  0  0  0  0  0  0
    4.9754   23.8017    5.1429 C   0  0  0  0  0  0  0  0  0  0  0  0
    0.8710   30.9177    7.0579 C   0  0  0  0  0  0  0  0  0  0  0  0
    4.8049   27.0757    7.0090 C   0  0  0  0  0  0  0  0  0  0  0  0
   -0.1296   23.1236   10.7772 C   0  0  0  0  0  0  0  0  0  0  0  0
   -1.1026   24.0419   10.4158 C   0  0  0  0  0  0  0  0  0  0  0  0
    1.2253   23.3853   10.5055 C   0  0  0  0  0  0  0  0  0  0  0  0
    5.1118   26.4726    4.6357 C   0  0  0  0  0  0  0  0  0  0  0  0
    4.8547   24.7032    6.2149 C   0  0  0  0  0  0  0  0  0  0  0  0
   -0.7555   25.2146    9.7399 C   0  0  0  0  0  0  0  0  0  0  0  0
    1.5851   24.5771    9.8487 C   0  0  0  0  0  0  0  0  0  0  0  0
    2.2071   26.7834    8.1156 C   0  0  0  0  0  0  0  0  0  0  0  0
    2.6006   27.9344    7.4162 C   0  0  0  0  0  0  0  0  0  0  0  0
   -0.0961   30.2023    7.8727 C   0  0  0  0  0  0  0  0  0  0  0  0
    0.4711   28.9144    8.0620 C   0  0  0  0  0  0  0  0  0  0  0  0
    0.9508   26.7608    8.7821 C   0  0  0  0  0  0  0  0  0  0  0  0
    4.9238   26.0692    5.9354 C   0  0  0  0  0  0  0  0  0  0  0  0
    0.5834   25.5025    9.4805 C   0  0  0  0  0  0  0  0  0  0  0  0
    3.9319   28.7974    6.0974 H   0  0  0  0  0  0  0  0  0  0  0  0
    5.4324   25.8047    2.6946 H   0  0  0  0  0  0  0  0  0  0  0  0
    4.9065   22.8238    5.3400 H   0  0  0  0  0  0  0  0  0  0  0  0
    0.7743   31.8743    6.7831 H   0  0  0  0  0  0  0  0  0  0  0  0
    4.5873   26.6057    7.8644 H   0  0  0  0  0  0  0  0  0  0  0  0
    5.6813   27.5483    7.1020 H   0  0  0  0  0  0  0  0  0  0  0  0
   -0.3916   22.2726   11.2324 H   0  0  0  0  0  0  0  0  0  0  0  0
   -2.0606   23.8639   10.6405 H   0  0  0  0  0  0  0  0  0  0  0  0
    1.9288   22.7286   10.7773 H   0  0  0  0  0  0  0  0  0  0  0  0
    5.1433   27.4456    4.4071 H   0  0  0  0  0  0  0  0  0  0  0  0
    4.7231   24.3754    7.1504 H   0  0  0  0  0  0  0  0  0  0  0  0
   -1.4691   25.8485    9.4417 H   0  0  0  0  0  0  0  0  0  0  0  0
    2.5451   24.7678    9.6438 H   0  0  0  0  0  0  0  0  0  0  0  0
    2.8065   25.9835    8.1454 H   0  0  0  0  0  0  0  0  0  0  0  0
  1 20  1  0  0  0  0
  2  6  1  0  0  0  0
  2  9  2  0  0  0  0
  3  7  2  0  0  0  0
  3  8  1  0  0  0  0
  4 10  1  0  0  0  0
  4 19  1  0  0  0  0
  5 21  1  0  0  0  0
  5 22  2  0  0  0  0
  6 19  1  0  0  0  0
  6 21  1  0  0  0  0
  7 14  1  0  0  0  0
  8 15  2  0  0  0  0
  9 20  1  0  0  0  0
 10 23  1  0  0  0  0
 11 12  2  0  0  0  0
 11 13  1  0  0  0  0
 12 16  1  0  0  0  0
 13 17  2  0  0  0  0
 14 23  2  0  0  0  0
 15 23  1  0  0  0  0
 16 24  2  0  0  0  0
 17 24  1  0  0  0  0
 18 19  2  0  0  0  0
 18 22  1  0  0  0  0
 20 21  2  0  0  0  0
 22 24  1  0  0  0  0
  4 25  1  0  0  0  0
  7 26  1  0  0  0  0
  8 27  1  0  0  0  0
  9 28  1  0  0  0  0
 10 29  1  0  0  0  0
 10 30  1  0  0  0  0
 11 31  1  0  0  0  0
 12 32  1  0  0  0  0
 13 33  1  0  0  0  0
 14 34  1  0  0  0  0
 15 35  1  0  0  0  0
 16 36  1  0  0  0  0
 17 37  1  0  0  0  0
 18 38  1  0  0  0  0
M  END
$$$$
