C85_A_1297
          05071912473D 1   1.00000     0.00000     0
            
 36 38  0  0  0  0            999 V2000
   -1.3944   27.6167    9.9093 S   0  0  0  0  0  0  0  0  0  0  0  0
    5.6696   23.8927    7.3392 S   0  0  0  0  0  0  0  0  0  0  0  0
    6.3190   23.8076    5.9809 O   0  0  0  0  0  0  0  0  0  0  0  0
    6.7281   24.1149    8.3848 O   0  0  0  0  0  0  0  0  0  0  0  0
   -3.1402   30.8788   10.4256 O   0  0  0  0  0  0  0  0  0  0  0  0
    0.6308   28.3597    8.0856 O   0  0  0  0  0  0  0  0  0  0  0  0
    4.8745   22.4959    7.6574 N   0  0  0  0  0  0  0  0  0  0  0  0
   -2.5705   26.5875   12.0736 N   0  0  0  0  0  0  0  0  0  0  0  0
   -3.0224   28.8152   11.4354 N   0  0  0  0  0  0  0  0  0  0  0  0
    4.6769   26.3038    6.4643 C   0  0  0  0  0  0  0  0  0  0  0  0
    3.4626   25.2250    8.2584 C   0  0  0  0  0  0  0  0  0  0  0  0
    0.8218   30.3080    7.1632 C   0  0  0  0  0  0  0  0  0  0  0  0
    1.9244   29.5963    6.8683 C   0  0  0  0  0  0  0  0  0  0  0  0
    3.7691   27.3673    6.4897 C   0  0  0  0  0  0  0  0  0  0  0  0
    2.5577   26.2763    8.2753 C   0  0  0  0  0  0  0  0  0  0  0  0
   -1.2914   29.9079    8.4765 C   0  0  0  0  0  0  0  0  0  0  0  0
   -2.4034   27.6259   11.2675 C   0  0  0  0  0  0  0  0  0  0  0  0
   -1.7897   29.2125    9.5368 C   0  0  0  0  0  0  0  0  0  0  0  0
    4.5255   25.2348    7.3576 C   0  0  0  0  0  0  0  0  0  0  0  0
   -2.6920   29.7345   10.4681 C   0  0  0  0  0  0  0  0  0  0  0  0
    0.0226   29.5375    7.9145 C   0  0  0  0  0  0  0  0  0  0  0  0
    1.7991   28.3894    7.4349 C   0  0  0  0  0  0  0  0  0  0  0  0
    2.7113   27.3514    7.3965 C   0  0  0  0  0  0  0  0  0  0  0  0
   -2.8586   31.4992    9.6936 H   0  0  0  0  0  0  0  0  0  0  0  0
    4.4448   22.5548    8.5585 H   0  0  0  0  0  0  0  0  0  0  0  0
    4.1716   22.3465    6.9620 H   0  0  0  0  0  0  0  0  0  0  0  0
   -3.1828   26.6592   12.8610 H   0  0  0  0  0  0  0  0  0  0  0  0
   -2.0843   25.7322   11.8946 H   0  0  0  0  0  0  0  0  0  0  0  0
    5.4329   26.3062    5.8097 H   0  0  0  0  0  0  0  0  0  0  0  0
    3.3521   24.4600    8.8929 H   0  0  0  0  0  0  0  0  0  0  0  0
    0.6318   31.2461    6.8733 H   0  0  0  0  0  0  0  0  0  0  0  0
    2.7004   29.9125    6.3225 H   0  0  0  0  0  0  0  0  0  0  0  0
    3.8787   28.1361    5.8596 H   0  0  0  0  0  0  0  0  0  0  0  0
    1.7925   26.2646    8.9190 H   0  0  0  0  0  0  0  0  0  0  0  0
   -1.2263   30.8643    8.7612 H   0  0  0  0  0  0  0  0  0  0  0  0
   -1.9580   29.8252    7.7357 H   0  0  0  0  0  0  0  0  0  0  0  0
  1 17  1  0  0  0  0
  1 18  1  0  0  0  0
  2  3  2  0  0  0  0
  2  4  2  0  0  0  0
  2  7  1  0  0  0  0
  2 19  1  0  0  0  0
  5 20  1  0  0  0  0
  6 21  1  0  0  0  0
  6 22  1  0  0  0  0
  8 17  1  0  0  0  0
  9 17  2  0  0  0  0
  9 20  1  0  0  0  0
 10 14  1  0  0  0  0
 10 19  2  0  0  0  0
 11 15  2  0  0  0  0
 11 19  1  0  0  0  0
 12 13  1  0  0  0  0
 12 21  2  0  0  0  0
 13 22  2  0  0  0  0
 14 23  2  0  0  0  0
 15 23  1  0  0  0  0
 16 18  1  0  0  0  0
 16 21  1  0  0  0  0
 18 20  2  0  0  0  0
 22 23  1  0  0  0  0
  5 24  1  0  0  0  0
  7 25  1  0  0  0  0
  7 26  1  0  0  0  0
  8 27  1  0  0  0  0
  8 28  1  0  0  0  0
 10 29  1  0  0  0  0
 11 30  1  0  0  0  0
 12 31  1  0  0  0  0
 13 32  1  0  0  0  0
 14 33  1  0  0  0  0
 15 34  1  0  0  0  0
 16 35  1  0  0  0  0
 16 36  1  0  0  0  0
M  END
$$$$
