C95_A_1297
          05071912473D 1   1.00000     0.00000     0
            
 32 34  0  0  0  0            999 V2000
   -1.6643   28.0402   10.1062 S   0  0  0  0  0  0  0  0  0  0  0  0
    4.9727   23.7370    7.8958 O   0  0  0  0  0  0  0  0  0  0  0  0
    5.8817   24.6190    6.1379 O   0  0  0  0  0  0  0  0  0  0  0  0
   -3.6176   31.0533   11.1803 O   0  0  0  0  0  0  0  0  0  0  0  0
    0.0988   28.9414    8.3313 O   0  0  0  0  0  0  0  0  0  0  0  0
   -2.6750   26.5954   12.1058 N   0  0  0  0  0  0  0  0  0  0  0  0
   -3.3249   28.8700   11.8230 N   0  0  0  0  0  0  0  0  0  0  0  0
    0.0880   30.8761    7.3471 C   0  0  0  0  0  0  0  0  0  0  0  0
    1.1562   30.1695    6.8754 C   0  0  0  0  0  0  0  0  0  0  0  0
    4.0482   26.8443    6.2163 C   0  0  0  0  0  0  0  0  0  0  0  0
    3.0510   25.7799    8.1466 C   0  0  0  0  0  0  0  0  0  0  0  0
    3.1229   27.9025    6.3236 C   0  0  0  0  0  0  0  0  0  0  0  0
    2.1250   26.8020    8.2337 C   0  0  0  0  0  0  0  0  0  0  0  0
   -1.7723   30.4620    9.0351 C   0  0  0  0  0  0  0  0  0  0  0  0
    5.0078   24.6456    7.0605 C   0  0  0  0  0  0  0  0  0  0  0  0
   -2.6222   27.7664   11.4573 C   0  0  0  0  0  0  0  0  0  0  0  0
   -2.1897   29.6250    9.9731 C   0  0  0  0  0  0  0  0  0  0  0  0
   -3.0970   29.9439   11.0121 C   0  0  0  0  0  0  0  0  0  0  0  0
   -0.5622   30.1041    8.2424 C   0  0  0  0  0  0  0  0  0  0  0  0
    1.1508   28.9683    7.4797 C   0  0  0  0  0  0  0  0  0  0  0  0
    4.0109   25.7840    7.1414 C   0  0  0  0  0  0  0  0  0  0  0  0
    2.1505   27.8653    7.3251 C   0  0  0  0  0  0  0  0  0  0  0  0
    4.2872   23.7531    8.6237 H   0  0  0  0  0  0  0  0  0  0  0  0
   -3.2659   26.4933   12.9061 H   0  0  0  0  0  0  0  0  0  0  0  0
   -2.1236   25.8234   11.7896 H   0  0  0  0  0  0  0  0  0  0  0  0
   -0.1680   31.8040    7.0763 H   0  0  0  0  0  0  0  0  0  0  0  0
    1.8229   30.4878    6.2016 H   0  0  0  0  0  0  0  0  0  0  0  0
    4.7297   26.8469    5.4844 H   0  0  0  0  0  0  0  0  0  0  0  0
    3.0304   25.0327    8.8109 H   0  0  0  0  0  0  0  0  0  0  0  0
    3.1625   28.6734    5.6878 H   0  0  0  0  0  0  0  0  0  0  0  0
    1.4304   26.7812    8.9528 H   0  0  0  0  0  0  0  0  0  0  0  0
   -2.2600   31.3178    8.8621 H   0  0  0  0  0  0  0  0  0  0  0  0
  1 16  1  0  0  0  0
  1 17  1  0  0  0  0
  2 15  1  0  0  0  0
  3 15  2  0  0  0  0
  4 18  2  0  0  0  0
  5 19  1  0  0  0  0
  5 20  1  0  0  0  0
  6 16  1  0  0  0  0
  7 16  2  0  0  0  0
  7 18  1  0  0  0  0
  8  9  1  0  0  0  0
  8 19  2  0  0  0  0
  9 20  2  0  0  0  0
 10 12  1  0  0  0  0
 10 21  2  0  0  0  0
 11 13  2  0  0  0  0
 11 21  1  0  0  0  0
 12 22  2  0  0  0  0
 13 22  1  0  0  0  0
 14 17  2  0  0  0  0
 14 19  1  0  0  0  0
 15 21  1  0  0  0  0
 17 18  1  0  0  0  0
 20 22  1  0  0  0  0
  2 23  1  0  0  0  0
  6 24  1  0  0  0  0
  6 25  1  0  0  0  0
  8 26  1  0  0  0  0
  9 27  1  0  0  0  0
 10 28  1  0  0  0  0
 11 29  1  0  0  0  0
 12 30  1  0  0  0  0
 13 31  1  0  0  0  0
 14 32  1  0  0  0  0
M  END
$$$$
