C94_A_1297
          05071912473D 1   1.00000     0.00000     0
            
 37 39  0  0  0  0            999 V2000
   -1.1645   28.1045    9.9751 S   0  0  0  0  0  0  0  0  0  0  0  0
    5.3417   23.8889    7.3984 S   0  0  0  0  0  0  0  0  0  0  0  0
    6.4174   25.4457    5.4415 F   0  0  0  0  0  0  0  0  0  0  0  0
    5.4523   27.0571    4.3671 F   0  0  0  0  0  0  0  0  0  0  0  0
    4.7039   25.0338    4.1787 F   0  0  0  0  0  0  0  0  0  0  0  0
    5.6034   23.4524    6.0751 O   0  0  0  0  0  0  0  0  0  0  0  0
    6.5273   24.2706    8.0812 O   0  0  0  0  0  0  0  0  0  0  0  0
   -3.5766   30.9104   10.1767 O   0  0  0  0  0  0  0  0  0  0  0  0
    0.5413   28.7232    8.0255 O   0  0  0  0  0  0  0  0  0  0  0  0
    4.5029   22.8066    8.2206 N   0  0  0  0  0  0  0  0  0  0  0  0
   -2.3787   26.8890   11.9168 N   0  0  0  0  0  0  0  0  0  0  0  0
   -3.1758   28.9289   11.2056 N   0  0  0  0  0  0  0  0  0  0  0  0
    3.4268   25.5464    8.3459 C   0  0  0  0  0  0  0  0  0  0  0  0
    0.6418   30.6291    6.8816 C   0  0  0  0  0  0  0  0  0  0  0  0
    1.7329   29.8435    6.5132 C   0  0  0  0  0  0  0  0  0  0  0  0
    2.5794   26.6365    8.3084 C   0  0  0  0  0  0  0  0  0  0  0  0
   -1.3279   30.3331    8.5161 C   0  0  0  0  0  0  0  0  0  0  0  0
    3.4606   27.2684    6.1611 C   0  0  0  0  0  0  0  0  0  0  0  0
   -2.3213   27.9008   11.1504 C   0  0  0  0  0  0  0  0  0  0  0  0
   -1.8116   29.5641    9.5113 C   0  0  0  0  0  0  0  0  0  0  0  0
    4.3054   25.3091    7.2991 C   0  0  0  0  0  0  0  0  0  0  0  0
   -2.9158   29.8823   10.2972 C   0  0  0  0  0  0  0  0  0  0  0  0
   -0.0926   29.9098    7.8200 C   0  0  0  0  0  0  0  0  0  0  0  0
    1.6480   28.6591    7.2346 C   0  0  0  0  0  0  0  0  0  0  0  0
    2.5993   27.5037    7.2263 C   0  0  0  0  0  0  0  0  0  0  0  0
    4.3136   26.1622    6.1887 C   0  0  0  0  0  0  0  0  0  0  0  0
    5.2516   25.9140    5.0104 C   0  0  0  0  0  0  0  0  0  0  0  0
    4.3370   23.1464    9.1463 H   0  0  0  0  0  0  0  0  0  0  0  0
    3.6285   22.6448    7.7632 H   0  0  0  0  0  0  0  0  0  0  0  0
   -3.1003   26.8241   12.6060 H   0  0  0  0  0  0  0  0  0  0  0  0
   -1.7021   26.1577   11.8308 H   0  0  0  0  0  0  0  0  0  0  0  0
    3.4068   24.9263    9.1301 H   0  0  0  0  0  0  0  0  0  0  0  0
    0.4263   31.5421    6.5352 H   0  0  0  0  0  0  0  0  0  0  0  0
    2.4437   30.0869    5.8532 H   0  0  0  0  0  0  0  0  0  0  0  0
    1.9479   26.8014    9.0661 H   0  0  0  0  0  0  0  0  0  0  0  0
   -1.7962   31.1764    8.2522 H   0  0  0  0  0  0  0  0  0  0  0  0
    3.4697   27.8891    5.3771 H   0  0  0  0  0  0  0  0  0  0  0  0
  1 19  1  0  0  0  0
  1 20  1  0  0  0  0
  2  6  2  0  0  0  0
  2  7  2  0  0  0  0
  2 10  1  0  0  0  0
  2 21  1  0  0  0  0
  3 27  1  0  0  0  0
  4 27  1  0  0  0  0
  5 27  1  0  0  0  0
  8 22  2  0  0  0  0
  9 23  1  0  0  0  0
  9 24  1  0  0  0  0
 11 19  1  0  0  0  0
 12 19  2  0  0  0  0
 12 22  1  0  0  0  0
 13 16  1  0  0  0  0
 13 21  2  0  0  0  0
 14 15  1  0  0  0  0
 14 23  2  0  0  0  0
 15 24  2  0  0  0  0
 16 25  2  0  0  0  0
 17 20  2  0  0  0  0
 17 23  1  0  0  0  0
 18 25  1  0  0  0  0
 18 26  2  0  0  0  0
 20 22  1  0  0  0  0
 21 26  1  0  0  0  0
 24 25  1  0  0  0  0
 26 27  1  0  0  0  0
 10 28  1  0  0  0  0
 10 29  1  0  0  0  0
 11 30  1  0  0  0  0
 11 31  1  0  0  0  0
 13 32  1  0  0  0  0
 14 33  1  0  0  0  0
 15 34  1  0  0  0  0
 16 35  1  0  0  0  0
 17 36  1  0  0  0  0
 18 37  1  0  0  0  0
M  END
$$$$
