C53_A_1299
          05071912473D 1   1.00000     0.00000     0
            
 23 24  0  0  0  0            999 V2000
    0.0460   30.4821    8.4041 S   0  0  0  0  0  0  0  0  0  0  0  0
    1.3947   27.0229    8.1755 O   0  0  0  0  0  0  0  0  0  0  0  0
    1.3252   31.2591    6.3162 N   0  0  0  0  0  0  0  0  0  0  0  0
   -0.8438   26.6521   11.6727 N   0  0  0  0  0  0  0  0  0  0  0  0
    1.5530   29.0284    7.0415 N   0  0  0  0  0  0  0  0  0  0  0  0
   -1.0852   25.3512   12.0018 C   0  0  0  0  0  0  0  0  0  0  0  0
   -1.0520   24.3464   11.0202 C   0  0  0  0  0  0  0  0  0  0  0  0
   -0.7747   24.6775    9.7121 C   0  0  0  0  0  0  0  0  0  0  0  0
   -0.5212   26.0303    9.3729 C   0  0  0  0  0  0  0  0  0  0  0  0
   -0.3814   28.3791   10.0729 C   0  0  0  0  0  0  0  0  0  0  0  0
    1.0580   30.3042    7.1436 C   0  0  0  0  0  0  0  0  0  0  0  0
    1.0953   28.2034    8.0571 C   0  0  0  0  0  0  0  0  0  0  0  0
    0.2054   28.8821    8.8897 C   0  0  0  0  0  0  0  0  0  0  0  0
   -0.5293   27.0067   10.3810 C   0  0  0  0  0  0  0  0  0  0  0  0
    1.0259   26.4873    8.9351 H   0  0  0  0  0  0  0  0  0  0  0  0
    1.9548   31.1003    5.5557 H   0  0  0  0  0  0  0  0  0  0  0  0
    0.9025   32.1574    6.4361 H   0  0  0  0  0  0  0  0  0  0  0  0
   -0.8959   27.3577   12.3793 H   0  0  0  0  0  0  0  0  0  0  0  0
   -1.2879   25.1099   12.9508 H   0  0  0  0  0  0  0  0  0  0  0  0
   -1.2290   23.3944   11.2702 H   0  0  0  0  0  0  0  0  0  0  0  0
   -0.7524   23.9687    9.0070 H   0  0  0  0  0  0  0  0  0  0  0  0
   -0.3381   26.2867    8.4238 H   0  0  0  0  0  0  0  0  0  0  0  0
   -0.7168   29.0426   10.7418 H   0  0  0  0  0  0  0  0  0  0  0  0
  1 11  1  0  0  0  0
  1 13  1  0  0  0  0
  2 12  1  0  0  0  0
  3 11  1  0  0  0  0
  4  6  1  0  0  0  0
  4 14  1  0  0  0  0
  5 11  2  0  0  0  0
  5 12  1  0  0  0  0
  6  7  2  0  0  0  0
  7  8  1  0  0  0  0
  8  9  2  0  0  0  0
  9 14  1  0  0  0  0
 10 13  1  0  0  0  0
 10 14  2  0  0  0  0
 12 13  2  0  0  0  0
  2 15  1  0  0  0  0
  3 16  1  0  0  0  0
  3 17  1  0  0  0  0
  4 18  1  0  0  0  0
  6 19  1  0  0  0  0
  7 20  1  0  0  0  0
  8 21  1  0  0  0  0
  9 22  1  0  0  0  0
 10 23  1  0  0  0  0
M  END
$$$$
