LZ1_A_1301
          05071912473D 1   1.00000     0.00000     0
            
 15 16  0  0  0  0            999 V2000
    1.7580   30.5447    6.3265 N   0  0  0  0  0  0  0  0  0  0  0  0
    0.6718   31.1222    6.9047 N   0  0  0  0  0  0  0  0  0  0  0  0
   -1.6133   29.2370    9.1740 C   0  0  0  0  0  0  0  0  0  0  0  0
   -0.9395   28.0323    9.0889 C   0  0  0  0  0  0  0  0  0  0  0  0
    1.7725   29.2668    6.7290 C   0  0  0  0  0  0  0  0  0  0  0  0
   -1.1515   30.3364    8.4782 C   0  0  0  0  0  0  0  0  0  0  0  0
    0.1970   27.9202    8.3080 C   0  0  0  0  0  0  0  0  0  0  0  0
   -0.0146   30.2293    7.6873 C   0  0  0  0  0  0  0  0  0  0  0  0
    0.6824   29.0160    7.5981 C   0  0  0  0  0  0  0  0  0  0  0  0
    0.4067   32.0778    6.7757 H   0  0  0  0  0  0  0  0  0  0  0  0
   -2.4347   29.3117    9.7394 H   0  0  0  0  0  0  0  0  0  0  0  0
   -1.2757   27.2378    9.5946 H   0  0  0  0  0  0  0  0  0  0  0  0
    2.4542   28.5883    6.4554 H   0  0  0  0  0  0  0  0  0  0  0  0
   -1.6352   31.2092    8.5435 H   0  0  0  0  0  0  0  0  0  0  0  0
    0.6749   27.0435    8.2526 H   0  0  0  0  0  0  0  0  0  0  0  0
  1  2  1  0  0  0  0
  1  5  2  0  0  0  0
  2  8  1  0  0  0  0
  3  4  2  0  0  0  0
  3  6  1  0  0  0  0
  4  7  1  0  0  0  0
  5  9  1  0  0  0  0
  6  8  2  0  0  0  0
  7  9  2  0  0  0  0
  8  9  1  0  0  0  0
  2 10  1  0  0  0  0
  3 11  1  0  0  0  0
  4 12  1  0  0  0  0
  5 13  1  0  0  0  0
  6 14  1  0  0  0  0
  7 15  1  0  0  0  0
M  END
$$$$
