LZ4_A_1300
          05071912473D 1   1.00000     0.00000     0
            
 27 28  0  0  0  0            999 V2000
   -1.4140   30.7296    8.6426 Cl  0  0  0  0  0  0  0  0  0  0  0  0
    6.6949   24.0336    7.5015 S   0  0  0  0  0  0  0  0  0  0  0  0
    6.4487   22.7725    8.1515 O   0  0  0  0  0  0  0  0  0  0  0  0
    7.6846   24.9257    8.0572 O   0  0  0  0  0  0  0  0  0  0  0  0
    7.1187   23.7301    5.9872 N   0  0  0  0  0  0  0  0  0  0  0  0
    1.7690   30.5257    6.3212 N   0  0  0  0  0  0  0  0  0  0  0  0
    0.2188   28.8204    7.9232 N   0  0  0  0  0  0  0  0  0  0  0  0
    1.5579   27.0144    7.3872 N   0  0  0  0  0  0  0  0  0  0  0  0
    0.7082   30.9756    6.9955 C   0  0  0  0  0  0  0  0  0  0  0  0
    2.0492   29.2266    6.4471 C   0  0  0  0  0  0  0  0  0  0  0  0
    3.9680   24.2260    7.5591 C   0  0  0  0  0  0  0  0  0  0  0  0
    5.1720   26.2964    7.3338 C   0  0  0  0  0  0  0  0  0  0  0  0
    2.7779   24.9205    7.5399 C   0  0  0  0  0  0  0  0  0  0  0  0
    3.9820   26.9908    7.3116 C   0  0  0  0  0  0  0  0  0  0  0  0
   -0.0431   30.1195    7.7723 C   0  0  0  0  0  0  0  0  0  0  0  0
    5.1665   24.9176    7.4651 C   0  0  0  0  0  0  0  0  0  0  0  0
    1.2879   28.3795    7.2412 C   0  0  0  0  0  0  0  0  0  0  0  0
    2.7717   26.3103    7.4168 C   0  0  0  0  0  0  0  0  0  0  0  0
    7.2960   24.5917    5.5116 H   0  0  0  0  0  0  0  0  0  0  0  0
    7.9460   23.1683    5.9788 H   0  0  0  0  0  0  0  0  0  0  0  0
    0.7450   26.4409    7.4880 H   0  0  0  0  0  0  0  0  0  0  0  0
    0.4564   31.9416    6.9367 H   0  0  0  0  0  0  0  0  0  0  0  0
    2.8333   28.8511    5.9530 H   0  0  0  0  0  0  0  0  0  0  0  0
    3.9675   23.2293    7.6404 H   0  0  0  0  0  0  0  0  0  0  0  0
    6.0393   26.7878    7.2551 H   0  0  0  0  0  0  0  0  0  0  0  0
    1.9125   24.4249    7.6147 H   0  0  0  0  0  0  0  0  0  0  0  0
    3.9876   27.9866    7.2196 H   0  0  0  0  0  0  0  0  0  0  0  0
  1 15  1  0  0  0  0
  2  3  2  0  0  0  0
  2  4  2  0  0  0  0
  2  5  1  0  0  0  0
  2 16  1  0  0  0  0
  6  9  2  0  0  0  0
  6 10  1  0  0  0  0
  7 15  2  0  0  0  0
  7 17  1  0  0  0  0
  8 17  1  0  0  0  0
  8 18  1  0  0  0  0
  9 15  1  0  0  0  0
 10 17  2  0  0  0  0
 11 13  1  0  0  0  0
 11 16  2  0  0  0  0
 12 14  2  0  0  0  0
 12 16  1  0  0  0  0
 13 18  2  0  0  0  0
 14 18  1  0  0  0  0
  5 19  1  0  0  0  0
  5 20  1  0  0  0  0
  8 21  1  0  0  0  0
  9 22  1  0  0  0  0
 10 23  1  0  0  0  0
 11 24  1  0  0  0  0
 12 25  1  0  0  0  0
 13 26  1  0  0  0  0
 14 27  1  0  0  0  0
M  END
$$$$
