LZM_A_1299
          05071912473D 1   1.00000     0.00000     0
            
 15 16  0  0  0  0            999 V2000
   -2.5778   30.3332    9.1215 N   0  0  0  0  0  0  0  0  0  0  0  0
    1.2654   31.0194    6.4648 N   0  0  0  0  0  0  0  0  0  0  0  0
    0.3032   27.8826    7.8204 N   0  0  0  0  0  0  0  0  0  0  0  0
    1.3878   29.6870    6.6859 N   0  0  0  0  0  0  0  0  0  0  0  0
    1.2758   27.0809    7.3717 C   0  0  0  0  0  0  0  0  0  0  0  0
   -1.6182   30.3158    8.5053 C   0  0  0  0  0  0  0  0  0  0  0  0
    0.1560   31.3665    7.1098 C   0  0  0  0  0  0  0  0  0  0  0  0
    2.3599   28.8763    6.2582 C   0  0  0  0  0  0  0  0  0  0  0  0
    2.3168   27.5448    6.5945 C   0  0  0  0  0  0  0  0  0  0  0  0
    0.3730   29.1813    7.4669 C   0  0  0  0  0  0  0  0  0  0  0  0
   -0.4241   30.2961    7.7359 C   0  0  0  0  0  0  0  0  0  0  0  0
    1.2470   26.1097    7.6083 H   0  0  0  0  0  0  0  0  0  0  0  0
   -0.2104   32.2966    7.1346 H   0  0  0  0  0  0  0  0  0  0  0  0
    3.1090   29.2339    5.7006 H   0  0  0  0  0  0  0  0  0  0  0  0
    3.0313   26.9198    6.2799 H   0  0  0  0  0  0  0  0  0  0  0  0
  1  6  3  0  0  0  0
  2  4  1  0  0  0  0
  2  7  2  0  0  0  0
  3  5  2  0  0  0  0
  3 10  1  0  0  0  0
  4  8  1  0  0  0  0
  4 10  1  0  0  0  0
  5  9  1  0  0  0  0
  6 11  1  0  0  0  0
  7 11  1  0  0  0  0
  8  9  2  0  0  0  0
 10 11  2  0  0  0  0
  5 12  1  0  0  0  0
  7 13  1  0  0  0  0
  8 14  1  0  0  0  0
  9 15  1  0  0  0  0
M  END
$$$$
