LZ8_A_1299
          05071912473D 1   1.00000     0.00000     0
            
 37 39  0  0  0  0            999 V2000
    6.7552   24.1397    5.9390 F   0  0  0  0  0  0  0  0  0  0  0  0
   -2.2543   30.1669    9.5046 O   0  0  0  0  0  0  0  0  0  0  0  0
    1.7472   27.2610    7.7629 O   0  0  0  0  0  0  0  0  0  0  0  0
    0.7051   31.5367    6.8028 N   0  0  0  0  0  0  0  0  0  0  0  0
    1.6279   30.5821    6.5148 N   0  0  0  0  0  0  0  0  0  0  0  0
    3.2449   28.3550    6.4917 N   0  0  0  0  0  0  0  0  0  0  0  0
   -0.4534   28.9276    8.8879 N   0  0  0  0  0  0  0  0  0  0  0  0
   -2.8178   25.8833   12.0802 C   0  0  0  0  0  0  0  0  0  0  0  0
   -3.7526   26.5656   11.3260 C   0  0  0  0  0  0  0  0  0  0  0  0
   -1.4875   26.2499   12.0289 C   0  0  0  0  0  0  0  0  0  0  0  0
   -0.1913   31.1143    7.6890 C   0  0  0  0  0  0  0  0  0  0  0  0
    5.3973   25.4643    7.3335 C   0  0  0  0  0  0  0  0  0  0  0  0
    5.5272   25.8852    4.9604 C   0  0  0  0  0  0  0  0  0  0  0  0
   -3.3601   27.6206   10.5224 C   0  0  0  0  0  0  0  0  0  0  0  0
   -1.0900   27.3029   11.2254 C   0  0  0  0  0  0  0  0  0  0  0  0
    4.5176   26.5239    7.4735 C   0  0  0  0  0  0  0  0  0  0  0  0
    4.6575   26.9488    5.0996 C   0  0  0  0  0  0  0  0  0  0  0  0
    5.8889   25.1613    6.0779 C   0  0  0  0  0  0  0  0  0  0  0  0
   -1.5943   29.1302    9.5859 C   0  0  0  0  0  0  0  0  0  0  0  0
    2.1072   28.2906    7.1931 C   0  0  0  0  0  0  0  0  0  0  0  0
    4.1466   27.2816    6.3563 C   0  0  0  0  0  0  0  0  0  0  0  0
    0.1519   29.8131    8.0143 C   0  0  0  0  0  0  0  0  0  0  0  0
   -2.0247   28.0002   10.4660 C   0  0  0  0  0  0  0  0  0  0  0  0
    1.2987   29.5295    7.2547 C   0  0  0  0  0  0  0  0  0  0  0  0
    0.7008   32.4502    6.3958 H   0  0  0  0  0  0  0  0  0  0  0  0
    3.4683   29.2168    6.0364 H   0  0  0  0  0  0  0  0  0  0  0  0
   -0.0003   28.0456    9.0168 H   0  0  0  0  0  0  0  0  0  0  0  0
   -3.1047   25.1234   12.6636 H   0  0  0  0  0  0  0  0  0  0  0  0
   -4.7150   26.2962   11.3611 H   0  0  0  0  0  0  0  0  0  0  0  0
   -0.8111   25.7536   12.5731 H   0  0  0  0  0  0  0  0  0  0  0  0
   -0.9642   31.6356    8.0507 H   0  0  0  0  0  0  0  0  0  0  0  0
    5.6731   24.9256    8.1296 H   0  0  0  0  0  0  0  0  0  0  0  0
    5.8903   25.6426    4.0608 H   0  0  0  0  0  0  0  0  0  0  0  0
   -4.0406   28.1125    9.9793 H   0  0  0  0  0  0  0  0  0  0  0  0
   -0.1255   27.5648   11.1899 H   0  0  0  0  0  0  0  0  0  0  0  0
    4.1464   26.7485    8.3745 H   0  0  0  0  0  0  0  0  0  0  0  0
    4.3924   27.4832    4.2971 H   0  0  0  0  0  0  0  0  0  0  0  0
  1 18  1  0  0  0  0
  2 19  2  0  0  0  0
  3 20  2  0  0  0  0
  4  5  1  0  0  0  0
  4 11  1  0  0  0  0
  5 24  2  0  0  0  0
  6 20  1  0  0  0  0
  6 21  1  0  0  0  0
  7 19  1  0  0  0  0
  7 22  1  0  0  0  0
  8  9  2  0  0  0  0
  8 10  1  0  0  0  0
  9 14  1  0  0  0  0
 10 15  2  0  0  0  0
 11 22  2  0  0  0  0
 12 16  2  0  0  0  0
 12 18  1  0  0  0  0
 13 17  1  0  0  0  0
 13 18  2  0  0  0  0
 14 23  2  0  0  0  0
 15 23  1  0  0  0  0
 16 21  1  0  0  0  0
 17 21  2  0  0  0  0
 19 23  1  0  0  0  0
 20 24  1  0  0  0  0
 22 24  1  0  0  0  0
  4 25  1  0  0  0  0
  6 26  1  0  0  0  0
  7 27  1  0  0  0  0
  8 28  1  0  0  0  0
  9 29  1  0  0  0  0
 10 30  1  0  0  0  0
 11 31  1  0  0  0  0
 12 32  1  0  0  0  0
 13 33  1  0  0  0  0
 14 34  1  0  0  0  0
 15 35  1  0  0  0  0
 16 36  1  0  0  0  0
 17 37  1  0  0  0  0
M  END
$$$$
