LZ9_A_1299
          05071912473D 1   1.00000     0.00000     0
            
 37 39  0  0  0  0            999 V2000
    6.5420   24.1753    6.2388 F   0  0  0  0  0  0  0  0  0  0  0  0
   -3.9857   28.0714    9.4491 F   0  0  0  0  0  0  0  0  0  0  0  0
    0.2154   27.9774   11.6157 F   0  0  0  0  0  0  0  0  0  0  0  0
    1.4070   27.4493    7.3865 O   0  0  0  0  0  0  0  0  0  0  0  0
   -1.9947   30.3922    9.8038 O   0  0  0  0  0  0  0  0  0  0  0  0
    0.6108   31.7884    6.8846 N   0  0  0  0  0  0  0  0  0  0  0  0
    1.5038   30.8524    6.4755 N   0  0  0  0  0  0  0  0  0  0  0  0
    3.1874   28.5553    6.5478 N   0  0  0  0  0  0  0  0  0  0  0  0
   -0.4575   29.0656    8.8148 N   0  0  0  0  0  0  0  0  0  0  0  0
   -2.6608   25.7914   11.9662 C   0  0  0  0  0  0  0  0  0  0  0  0
   -0.2434   31.3135    7.7664 C   0  0  0  0  0  0  0  0  0  0  0  0
   -3.5392   26.3752   11.0545 C   0  0  0  0  0  0  0  0  0  0  0  0
   -1.3963   26.3426   12.1641 C   0  0  0  0  0  0  0  0  0  0  0  0
    5.3739   25.9002    5.1548 C   0  0  0  0  0  0  0  0  0  0  0  0
    5.2599   25.6426    7.5596 C   0  0  0  0  0  0  0  0  0  0  0  0
    4.5460   26.9985    5.2313 C   0  0  0  0  0  0  0  0  0  0  0  0
    4.4199   26.7378    7.6388 C   0  0  0  0  0  0  0  0  0  0  0  0
    5.7252   25.2407    6.3187 C   0  0  0  0  0  0  0  0  0  0  0  0
   -3.1419   27.5093   10.3369 C   0  0  0  0  0  0  0  0  0  0  0  0
   -1.0127   27.4675   11.4363 C   0  0  0  0  0  0  0  0  0  0  0  0
    1.9195   28.4953    7.0130 C   0  0  0  0  0  0  0  0  0  0  0  0
   -1.4422   29.2860    9.6995 C   0  0  0  0  0  0  0  0  0  0  0  0
    4.0614   27.4343    6.4735 C   0  0  0  0  0  0  0  0  0  0  0  0
    0.0927   30.0118    7.9686 C   0  0  0  0  0  0  0  0  0  0  0  0
    1.1875   29.7675    7.1345 C   0  0  0  0  0  0  0  0  0  0  0  0
   -1.8771   28.0903   10.5126 C   0  0  0  0  0  0  0  0  0  0  0  0
    2.2441   30.9671    5.8131 H   0  0  0  0  0  0  0  0  0  0  0  0
    3.5322   29.4411    6.2371 H   0  0  0  0  0  0  0  0  0  0  0  0
   -0.0897   28.1372    8.7627 H   0  0  0  0  0  0  0  0  0  0  0  0
   -2.9379   24.9780   12.4777 H   0  0  0  0  0  0  0  0  0  0  0  0
   -0.9926   31.8124    8.2020 H   0  0  0  0  0  0  0  0  0  0  0  0
   -4.4492   25.9853   10.9138 H   0  0  0  0  0  0  0  0  0  0  0  0
   -0.7673   25.9331   12.8250 H   0  0  0  0  0  0  0  0  0  0  0  0
    5.7162   25.5841    4.2700 H   0  0  0  0  0  0  0  0  0  0  0  0
    5.5275   25.1477    8.3863 H   0  0  0  0  0  0  0  0  0  0  0  0
    4.2893   27.4874    4.3976 H   0  0  0  0  0  0  0  0  0  0  0  0
    4.0675   27.0342    8.5265 H   0  0  0  0  0  0  0  0  0  0  0  0
  1 18  1  0  0  0  0
  2 19  1  0  0  0  0
  3 20  1  0  0  0  0
  4 21  2  0  0  0  0
  5 22  2  0  0  0  0
  6  7  1  0  0  0  0
  6 11  2  0  0  0  0
  7 25  1  0  0  0  0
  8 21  1  0  0  0  0
  8 23  1  0  0  0  0
  9 22  1  0  0  0  0
  9 24  1  0  0  0  0
 10 12  2  0  0  0  0
 10 13  1  0  0  0  0
 11 24  1  0  0  0  0
 12 19  1  0  0  0  0
 13 20  2  0  0  0  0
 14 16  2  0  0  0  0
 14 18  1  0  0  0  0
 15 17  1  0  0  0  0
 15 18  2  0  0  0  0
 16 23  1  0  0  0  0
 17 23  2  0  0  0  0
 19 26  2  0  0  0  0
 20 26  1  0  0  0  0
 21 25  1  0  0  0  0
 22 26  1  0  0  0  0
 24 25  2  0  0  0  0
  7 27  1  0  0  0  0
  8 28  1  0  0  0  0
  9 29  1  0  0  0  0
 10 30  1  0  0  0  0
 11 31  1  0  0  0  0
 12 32  1  0  0  0  0
 13 33  1  0  0  0  0
 14 34  1  0  0  0  0
 15 35  1  0  0  0  0
 16 36  1  0  0  0  0
 17 37  1  0  0  0  0
M  END
$$$$
