LZB_A_1299
          05071912473D 1   1.00000     0.00000     0
            
 26 27  0  0  0  0            999 V2000
   -0.2739   25.7491    9.3334 Cl  0  0  0  0  0  0  0  0  0  0  0  0
   -2.2314   31.5577    9.2074 N   0  0  0  0  0  0  0  0  0  0  0  0
    1.6480   30.4521    6.6391 N   0  0  0  0  0  0  0  0  0  0  0  0
   -0.2457   28.2528    8.6532 N   0  0  0  0  0  0  0  0  0  0  0  0
    3.1598   27.9599    6.1957 N   0  0  0  0  0  0  0  0  0  0  0  0
    1.3260   29.2334    7.1669 N   0  0  0  0  0  0  0  0  0  0  0  0
    4.8826   26.7855    4.9172 C   0  0  0  0  0  0  0  0  0  0  0  0
    4.7701   26.5964    7.4325 C   0  0  0  0  0  0  0  0  0  0  0  0
   -1.3335   31.1429    8.6365 C   0  0  0  0  0  0  0  0  0  0  0  0
    0.6826   31.2995    7.1145 C   0  0  0  0  0  0  0  0  0  0  0  0
    1.5199   26.9196    7.6794 C   0  0  0  0  0  0  0  0  0  0  0  0
    0.3920   27.0940    8.4762 C   0  0  0  0  0  0  0  0  0  0  0  0
    2.0122   28.0335    7.0047 C   0  0  0  0  0  0  0  0  0  0  0  0
    0.2201   29.3199    7.9871 C   0  0  0  0  0  0  0  0  0  0  0  0
    3.9768   26.7503    6.1378 C   0  0  0  0  0  0  0  0  0  0  0  0
   -0.2108   30.6262    7.9343 C   0  0  0  0  0  0  0  0  0  0  0  0
    3.4228   28.7538    5.6475 H   0  0  0  0  0  0  0  0  0  0  0  0
    5.4360   25.9531    4.8888 H   0  0  0  0  0  0  0  0  0  0  0  0
    4.3244   26.8430    4.0894 H   0  0  0  0  0  0  0  0  0  0  0  0
    5.4830   27.5833    4.9705 H   0  0  0  0  0  0  0  0  0  0  0  0
    5.3267   25.7669    7.3857 H   0  0  0  0  0  0  0  0  0  0  0  0
    5.3652   27.3906    7.5552 H   0  0  0  0  0  0  0  0  0  0  0  0
    4.1383   26.5308    8.2048 H   0  0  0  0  0  0  0  0  0  0  0  0
    0.6291   32.2746    6.8990 H   0  0  0  0  0  0  0  0  0  0  0  0
    1.9609   26.0261    7.5946 H   0  0  0  0  0  0  0  0  0  0  0  0
    3.3652   25.9640    6.0506 H   0  0  0  0  0  0  0  0  0  0  0  0
  1 12  1  0  0  0  0
  2  9  3  0  0  0  0
  3  6  1  0  0  0  0
  3 10  2  0  0  0  0
  4 12  2  0  0  0  0
  4 14  1  0  0  0  0
  5 13  1  0  0  0  0
  5 15  1  0  0  0  0
  6 13  1  0  0  0  0
  6 14  1  0  0  0  0
  7 15  1  0  0  0  0
  8 15  1  0  0  0  0
  9 16  1  0  0  0  0
 10 16  1  0  0  0  0
 11 12  1  0  0  0  0
 11 13  2  0  0  0  0
 14 16  2  0  0  0  0
  5 17  1  0  0  0  0
  7 18  1  0  0  0  0
  7 19  1  0  0  0  0
  7 20  1  0  0  0  0
  8 21  1  0  0  0  0
  8 22  1  0  0  0  0
  8 23  1  0  0  0  0
 10 24  1  0  0  0  0
 11 25  1  0  0  0  0
 15 26  1  0  0  0  0
M  END
$$$$
