FRV_A_1300
          05071912473D 1   1.00000     0.00000     0
            
 47 50  0  0  0  0            999 V2000
    6.4083   23.8339    7.4701 S   0  0  0  0  0  0  0  0  0  0  0  0
    6.9221   23.2434    6.2553 O   0  0  0  0  0  0  0  0  0  0  0  0
    7.5075   24.2570    8.3149 O   0  0  0  0  0  0  0  0  0  0  0  0
    5.4406   22.6415    8.3596 N   0  0  0  0  0  0  0  0  0  0  0  0
    1.7761   30.5554    6.6071 N   0  0  0  0  0  0  0  0  0  0  0  0
   -0.3728   26.0545   10.3836 N   0  0  0  0  0  0  0  0  0  0  0  0
    3.1990   28.6838    6.1027 N   0  0  0  0  0  0  0  0  0  0  0  0
    1.4244   28.5007    7.6177 N   0  0  0  0  0  0  0  0  0  0  0  0
   -1.5292   27.8883    9.8819 N   0  0  0  0  0  0  0  0  0  0  0  0
    4.6075   21.8380    7.4995 C   0  0  0  0  0  0  0  0  0  0  0  0
   -2.5860   26.1032   11.4690 C   0  0  0  0  0  0  0  0  0  0  0  0
    0.7203   31.0979    7.2647 C   0  0  0  0  0  0  0  0  0  0  0  0
    0.3814   26.8042    9.5631 C   0  0  0  0  0  0  0  0  0  0  0  0
   -0.0307   30.2886    8.1594 C   0  0  0  0  0  0  0  0  0  0  0  0
    4.3833   25.6148    7.9328 C   0  0  0  0  0  0  0  0  0  0  0  0
    5.7554   25.9668    5.9390 C   0  0  0  0  0  0  0  0  0  0  0  0
    3.6207   26.7557    7.6114 C   0  0  0  0  0  0  0  0  0  0  0  0
    4.9928   27.1077    5.6176 C   0  0  0  0  0  0  0  0  0  0  0  0
   -3.3254   29.2626    8.6418 C   0  0  0  0  0  0  0  0  0  0  0  0
   -2.9813   30.2421    9.7690 C   0  0  0  0  0  0  0  0  0  0  0  0
    2.1567   29.2650    6.7526 C   0  0  0  0  0  0  0  0  0  0  0  0
    5.4605   25.2231    7.0889 C   0  0  0  0  0  0  0  0  0  0  0  0
   -1.4923   26.6765   10.5829 C   0  0  0  0  0  0  0  0  0  0  0  0
    3.9280   27.5265    6.4341 C   0  0  0  0  0  0  0  0  0  0  0  0
    0.3487   28.9469    8.3256 C   0  0  0  0  0  0  0  0  0  0  0  0
   -2.7396   28.7755    9.9750 C   0  0  0  0  0  0  0  0  0  0  0  0
   -0.2952   27.9710    9.2258 C   0  0  0  0  0  0  0  0  0  0  0  0
    4.8544   23.1269    9.0083 H   0  0  0  0  0  0  0  0  0  0  0  0
    3.4911   29.1466    5.2657 H   0  0  0  0  0  0  0  0  0  0  0  0
    4.0875   21.1871    8.0525 H   0  0  0  0  0  0  0  0  0  0  0  0
    3.9755   22.4302    6.9996 H   0  0  0  0  0  0  0  0  0  0  0  0
    5.1818   21.3396    6.8501 H   0  0  0  0  0  0  0  0  0  0  0  0
   -3.3621   26.7334   11.4906 H   0  0  0  0  0  0  0  0  0  0  0  0
   -2.8831   25.2210   11.1034 H   0  0  0  0  0  0  0  0  0  0  0  0
   -2.2325   25.9778   12.3960 H   0  0  0  0  0  0  0  0  0  0  0  0
    0.4734   32.0563    7.1212 H   0  0  0  0  0  0  0  0  0  0  0  0
    1.2961   26.5590    9.2417 H   0  0  0  0  0  0  0  0  0  0  0  0
   -0.8107   30.6657    8.6588 H   0  0  0  0  0  0  0  0  0  0  0  0
    4.1681   25.0821    8.7513 H   0  0  0  0  0  0  0  0  0  0  0  0
    6.5093   25.6874    5.3443 H   0  0  0  0  0  0  0  0  0  0  0  0
    2.8632   27.0312    8.2032 H   0  0  0  0  0  0  0  0  0  0  0  0
    5.2134   27.6290    4.7932 H   0  0  0  0  0  0  0  0  0  0  0  0
   -2.7716   29.2381    7.8095 H   0  0  0  0  0  0  0  0  0  0  0  0
   -4.2803   29.0741    8.4125 H   0  0  0  0  0  0  0  0  0  0  0  0
   -3.7145   30.7012   10.2707 H   0  0  0  0  0  0  0  0  0  0  0  0
   -2.2058   30.8652    9.6677 H   0  0  0  0  0  0  0  0  0  0  0  0
   -3.4451   28.3685   10.5552 H   0  0  0  0  0  0  0  0  0  0  0  0
  1  2  2  0  0  0  0
  1  3  2  0  0  0  0
  1  4  1  0  0  0  0
  1 22  1  0  0  0  0
  4 10  1  0  0  0  0
  5 12  2  0  0  0  0
  5 21  1  0  0  0  0
  6 13  1  0  0  0  0
  6 23  2  0  0  0  0
  7 21  1  0  0  0  0
  7 24  1  0  0  0  0
  8 21  2  0  0  0  0
  8 25  1  0  0  0  0
  9 23  1  0  0  0  0
  9 26  1  0  0  0  0
  9 27  1  0  0  0  0
 11 23  1  0  0  0  0
 12 14  1  0  0  0  0
 13 27  2  0  0  0  0
 14 25  2  0  0  0  0
 15 17  1  0  0  0  0
 15 22  2  0  0  0  0
 16 18  2  0  0  0  0
 16 22  1  0  0  0  0
 17 24  2  0  0  0  0
 18 24  1  0  0  0  0
 19 20  1  0  0  0  0
 19 26  1  0  0  0  0
 20 26  1  0  0  0  0
 25 27  1  0  0  0  0
  4 28  1  0  0  0  0
  7 29  1  0  0  0  0
 10 30  1  0  0  0  0
 10 31  1  0  0  0  0
 10 32  1  0  0  0  0
 11 33  1  0  0  0  0
 11 34  1  0  0  0  0
 11 35  1  0  0  0  0
 12 36  1  0  0  0  0
 13 37  1  0  0  0  0
 14 38  1  0  0  0  0
 15 39  1  0  0  0  0
 16 40  1  0  0  0  0
 17 41  1  0  0  0  0
 18 42  1  0  0  0  0
 19 43  1  0  0  0  0
 19 44  1  0  0  0  0
 20 45  1  0  0  0  0
 20 46  1  0  0  0  0
 26 47  1  0  0  0  0
M  END
$$$$
