I19_A_1300
          05071912473D 1   1.00000     0.00000     0
            
 63 66  0  0  0  0            999 V2000
   -1.3386   31.7094    8.3478 F   0  0  0  0  0  0  0  0  0  0  0  0
    6.9714   24.4515    8.1132 O   0  0  0  0  0  0  0  0  0  0  0  0
    1.6358   30.6857    6.6854 N   0  0  0  0  0  0  0  0  0  0  0  0
   -3.3071   28.3985    9.9307 N   0  0  0  0  0  0  0  0  0  0  0  0
    2.7441   28.6825    6.4406 N   0  0  0  0  0  0  0  0  0  0  0  0
    0.6976   28.7707    7.7108 N   0  0  0  0  0  0  0  0  0  0  0  0
    5.7186   20.9977   10.8337 N   0  0  0  0  0  0  0  0  0  0  0  0
    5.2160   22.9921    8.2435 N   0  0  0  0  0  0  0  0  0  0  0  0
   -1.2763   27.7337    9.8120 N   0  0  0  0  0  0  0  0  0  0  0  0
    4.6369   20.6056   11.7776 C   0  0  0  0  0  0  0  0  0  0  0  0
    6.9398   20.2011   11.1478 C   0  0  0  0  0  0  0  0  0  0  0  0
   -2.8290   26.3413   11.2881 C   0  0  0  0  0  0  0  0  0  0  0  0
    0.2483   27.0359   11.5391 C   0  0  0  0  0  0  0  0  0  0  0  0
   -0.1172   25.5417    9.5304 C   0  0  0  0  0  0  0  0  0  0  0  0
    0.6317   31.4202    7.1554 C   0  0  0  0  0  0  0  0  0  0  0  0
   -2.6748   29.2920    9.0845 C   0  0  0  0  0  0  0  0  0  0  0  0
    3.8806   22.7360    8.7122 C   0  0  0  0  0  0  0  0  0  0  0  0
    6.1551   21.9899    8.6944 C   0  0  0  0  0  0  0  0  0  0  0  0
    3.9086   21.2687    9.1264 C   0  0  0  0  0  0  0  0  0  0  0  0
    3.1844   26.9111    8.0816 C   0  0  0  0  0  0  0  0  0  0  0  0
    4.4898   27.0962    6.0997 C   0  0  0  0  0  0  0  0  0  0  0  0
    3.9325   25.8151    8.4629 C   0  0  0  0  0  0  0  0  0  0  0  0
    5.2582   25.9981    6.4499 C   0  0  0  0  0  0  0  0  0  0  0  0
    1.6452   29.3779    6.9819 C   0  0  0  0  0  0  0  0  0  0  0  0
    5.7714   24.2298    8.0280 C   0  0  0  0  0  0  0  0  0  0  0  0
   -2.4681   27.4601   10.3644 C   0  0  0  0  0  0  0  0  0  0  0  0
   -0.3691   30.8888    7.9122 C   0  0  0  0  0  0  0  0  0  0  0  0
    3.4541   27.5590    6.8965 C   0  0  0  0  0  0  0  0  0  0  0  0
   -0.0685   26.9662   10.0592 C   0  0  0  0  0  0  0  0  0  0  0  0
    5.3680   20.9059    9.3765 C   0  0  2  0  0  0  0  0  0  0  0  0
   -0.3025   29.5323    8.1727 C   0  0  0  0  0  0  0  0  0  0  0  0
   -1.3640   28.8740    9.0002 C   0  0  0  0  0  0  0  0  0  0  0  0
    4.9490   25.3659    7.6410 C   0  0  0  0  0  0  0  0  0  0  0  0
    3.0796   29.0559    5.5757 H   0  0  0  0  0  0  0  0  0  0  0  0
    3.8117   21.1335   11.5768 H   0  0  0  0  0  0  0  0  0  0  0  0
    4.4419   19.6302   11.6744 H   0  0  0  0  0  0  0  0  0  0  0  0
    4.9303   20.7895   12.7157 H   0  0  0  0  0  0  0  0  0  0  0  0
    7.6748   20.4559   10.5194 H   0  0  0  0  0  0  0  0  0  0  0  0
    7.2259   20.3863   12.0879 H   0  0  0  0  0  0  0  0  0  0  0  0
    6.7375   19.2270   11.0466 H   0  0  0  0  0  0  0  0  0  0  0  0
   -2.0217   25.7764   11.4589 H   0  0  0  0  0  0  0  0  0  0  0  0
   -3.1619   26.7172   12.1529 H   0  0  0  0  0  0  0  0  0  0  0  0
   -3.5449   25.7819   10.8702 H   0  0  0  0  0  0  0  0  0  0  0  0
    1.0788   26.5117   11.7272 H   0  0  0  0  0  0  0  0  0  0  0  0
    0.3886   27.9896   11.8054 H   0  0  0  0  0  0  0  0  0  0  0  0
   -0.5134   26.6526   12.0614 H   0  0  0  0  0  0  0  0  0  0  0  0
    0.7451   25.0797    9.7375 H   0  0  0  0  0  0  0  0  0  0  0  0
   -0.8716   25.0503    9.9656 H   0  0  0  0  0  0  0  0  0  0  0  0
   -0.2572   25.5582    8.5404 H   0  0  0  0  0  0  0  0  0  0  0  0
    0.6104   32.3978    6.9458 H   0  0  0  0  0  0  0  0  0  0  0  0
   -3.0853   30.0808    8.6271 H   0  0  0  0  0  0  0  0  0  0  0  0
    3.2131   22.8866    7.9830 H   0  0  0  0  0  0  0  0  0  0  0  0
    3.6596   23.3212    9.4925 H   0  0  0  0  0  0  0  0  0  0  0  0
    6.8049   22.3958    9.3371 H   0  0  0  0  0  0  0  0  0  0  0  0
    6.6513   21.6113    7.9132 H   0  0  0  0  0  0  0  0  0  0  0  0
    3.5329   20.6982    8.3961 H   0  0  0  0  0  0  0  0  0  0  0  0
    3.3737   21.1368    9.9610 H   0  0  0  0  0  0  0  0  0  0  0  0
    2.4431   27.2361    8.6688 H   0  0  0  0  0  0  0  0  0  0  0  0
    4.6890   27.5714    5.2427 H   0  0  0  0  0  0  0  0  0  0  0  0
    3.7403   25.3499    9.3269 H   0  0  0  0  0  0  0  0  0  0  0  0
    6.0043   25.6763    5.8669 H   0  0  0  0  0  0  0  0  0  0  0  0
    0.6758   27.4305    9.5791 H   0  0  0  0  0  0  0  0  0  0  0  0
    5.5892   20.0047    9.0039 H   0  0  0  0  0  0  0  0  0  0  0  0
  1 27  1  0  0  0  0
  2 25  2  0  0  0  0
  3 15  2  0  0  0  0
  3 24  1  0  0  0  0
  4 16  1  0  0  0  0
  4 26  2  0  0  0  0
  5 24  1  0  0  0  0
  5 28  1  0  0  0  0
  6 24  2  0  0  0  0
  6 31  1  0  0  0  0
  7 10  1  0  0  0  0
  7 11  1  0  0  0  0
  7 30  1  0  0  0  0
  8 17  1  0  0  0  0
  8 18  1  0  0  0  0
  8 25  1  0  0  0  0
  9 26  1  0  0  0  0
  9 29  1  0  0  0  0
  9 32  1  0  0  0  0
 12 26  1  0  0  0  0
 13 29  1  0  0  0  0
 14 29  1  0  0  0  0
 15 27  1  0  0  0  0
 16 32  2  0  0  0  0
 17 19  1  0  0  0  0
 18 30  1  0  0  0  0
 19 30  1  0  0  0  0
 20 22  1  0  0  0  0
 20 28  2  0  0  0  0
 21 23  2  0  0  0  0
 21 28  1  0  0  0  0
 22 33  2  0  0  0  0
 23 33  1  0  0  0  0
 25 33  1  0  0  0  0
 27 31  2  0  0  0  0
 31 32  1  0  0  0  0
  5 34  1  0  0  0  0
 10 35  1  0  0  0  0
 10 36  1  0  0  0  0
 10 37  1  0  0  0  0
 11 38  1  0  0  0  0
 11 39  1  0  0  0  0
 11 40  1  0  0  0  0
 12 41  1  0  0  0  0
 12 42  1  0  0  0  0
 12 43  1  0  0  0  0
 13 44  1  0  0  0  0
 13 45  1  0  0  0  0
 13 46  1  0  0  0  0
 14 47  1  0  0  0  0
 14 48  1  0  0  0  0
 14 49  1  0  0  0  0
 15 50  1  0  0  0  0
 16 51  1  0  0  0  0
 17 52  1  0  0  0  0
 17 53  1  0  0  0  0
 18 54  1  0  0  0  0
 18 55  1  0  0  0  0
 19 56  1  0  0  0  0
 19 57  1  0  0  0  0
 20 58  1  0  0  0  0
 21 59  1  0  0  0  0
 22 60  1  0  0  0  0
 23 61  1  0  0  0  0
 29 62  1  0  0  0  0
 30 63  1  0  0  0  0
M  END
$$$$
