L0F_A_1299
          05071912473D 1   1.00000     0.00000     0
            
 36 39  0  0  0  0            999 V2000
   -1.8067   29.3034    9.6948 O   0  0  0  0  0  0  0  0  0  0  0  0
    0.5693   31.5333    6.9406 N   0  0  0  0  0  0  0  0  0  0  0  0
    1.6708   30.7713    6.5313 N   0  0  0  0  0  0  0  0  0  0  0  0
    0.2012   28.5617    8.9441 N   0  0  0  0  0  0  0  0  0  0  0  0
    2.5794   27.3971    7.7346 N   0  0  0  0  0  0  0  0  0  0  0  0
    3.7508   28.5438    6.2659 N   0  0  0  0  0  0  0  0  0  0  0  0
   -0.1133   30.8255    7.8753 C   0  0  0  0  0  0  0  0  0  0  0  0
   -1.3959   24.9328   12.2021 C   0  0  0  0  0  0  0  0  0  0  0  0
    5.1953   24.7459    7.2531 C   0  0  0  0  0  0  0  0  0  0  0  0
    5.9710   25.4697    6.3206 C   0  0  0  0  0  0  0  0  0  0  0  0
   -2.1702   26.0833   12.4589 C   0  0  0  0  0  0  0  0  0  0  0  0
   -0.4701   24.9221   11.1355 C   0  0  0  0  0  0  0  0  0  0  0  0
    4.0441   25.3060    7.8039 C   0  0  0  0  0  0  0  0  0  0  0  0
    5.5719   26.7518    5.9019 C   0  0  0  0  0  0  0  0  0  0  0  0
   -2.0258   27.2294   11.6506 C   0  0  0  0  0  0  0  0  0  0  0  0
   -0.3163   26.0629   10.3188 C   0  0  0  0  0  0  0  0  0  0  0  0
   -0.9340   28.4448    9.7065 C   0  0  0  0  0  0  0  0  0  0  0  0
    2.6429   28.5318    7.0736 C   0  0  0  0  0  0  0  0  0  0  0  0
    0.5342   29.6357    8.0581 C   0  0  0  0  0  0  0  0  0  0  0  0
    3.6142   26.6034    7.3866 C   0  0  0  0  0  0  0  0  0  0  0  0
    4.4099   27.3451    6.4584 C   0  0  0  0  0  0  0  0  0  0  0  0
    1.6601   29.6332    7.1984 C   0  0  0  0  0  0  0  0  0  0  0  0
   -1.0943   27.2343   10.5699 C   0  0  0  0  0  0  0  0  0  0  0  0
    0.3274   32.4426    6.6020 H   0  0  0  0  0  0  0  0  0  0  0  0
    0.8661   27.8181    9.0151 H   0  0  0  0  0  0  0  0  0  0  0  0
    1.8697   27.1575    8.3970 H   0  0  0  0  0  0  0  0  0  0  0  0
   -0.9435   31.1220    8.3474 H   0  0  0  0  0  0  0  0  0  0  0  0
   -1.5027   24.1217   12.7772 H   0  0  0  0  0  0  0  0  0  0  0  0
    5.4746   23.8237    7.5204 H   0  0  0  0  0  0  0  0  0  0  0  0
    6.8104   25.0674    5.9552 H   0  0  0  0  0  0  0  0  0  0  0  0
   -2.8233   26.0862   13.2161 H   0  0  0  0  0  0  0  0  0  0  0  0
    0.0778   24.1045   10.9586 H   0  0  0  0  0  0  0  0  0  0  0  0
    3.5200   24.8010    8.4897 H   0  0  0  0  0  0  0  0  0  0  0  0
    6.1058   27.2435    5.2140 H   0  0  0  0  0  0  0  0  0  0  0  0
   -2.5784   28.0421   11.8355 H   0  0  0  0  0  0  0  0  0  0  0  0
    0.3383   26.0510    9.5630 H   0  0  0  0  0  0  0  0  0  0  0  0
  1 17  2  0  0  0  0
  2  3  1  0  0  0  0
  2  7  1  0  0  0  0
  3 22  2  0  0  0  0
  4 17  1  0  0  0  0
  4 19  1  0  0  0  0
  5 18  1  0  0  0  0
  5 20  1  0  0  0  0
  6 18  2  0  0  0  0
  6 21  1  0  0  0  0
  7 19  2  0  0  0  0
  8 11  2  0  0  0  0
  8 12  1  0  0  0  0
  9 10  2  0  0  0  0
  9 13  1  0  0  0  0
 10 14  1  0  0  0  0
 11 15  1  0  0  0  0
 12 16  2  0  0  0  0
 13 20  2  0  0  0  0
 14 21  2  0  0  0  0
 15 23  2  0  0  0  0
 16 23  1  0  0  0  0
 17 23  1  0  0  0  0
 18 22  1  0  0  0  0
 19 22  1  0  0  0  0
 20 21  1  0  0  0  0
  2 24  1  0  0  0  0
  4 25  1  0  0  0  0
  5 26  1  0  0  0  0
  7 27  1  0  0  0  0
  8 28  1  0  0  0  0
  9 29  1  0  0  0  0
 10 30  1  0  0  0  0
 11 31  1  0  0  0  0
 12 32  1  0  0  0  0
 13 33  1  0  0  0  0
 14 34  1  0  0  0  0
 15 35  1  0  0  0  0
 16 36  1  0  0  0  0
M  END
$$$$
