Y8L_A_1299
          05071912473D 1   1.00000     0.00000     0
            
 49 52  0  0  0  0            999 V2000
   -2.5271   29.5838    9.5404 S   0  0  0  0  0  0  0  0  0  0  0  0
   -4.0807   28.1066   11.0299 O   0  0  0  0  0  0  0  0  0  0  0  0
    5.0801   20.7436    7.4272 N   0  0  0  0  0  0  0  0  0  0  0  0
    1.9057   30.6794    6.8273 N   0  0  0  0  0  0  0  0  0  0  0  0
    3.0957   28.7365    6.6119 N   0  0  0  0  0  0  0  0  0  0  0  0
    0.9969   28.7550    7.7535 N   0  0  0  0  0  0  0  0  0  0  0  0
    4.8081   23.4717    7.3839 N   0  0  0  0  0  0  0  0  0  0  0  0
   -2.1961   27.1987   10.1533 N   0  0  0  0  0  0  0  0  0  0  0  0
   -2.4120   25.8447   10.7380 C   0  0  0  0  0  0  0  0  0  0  0  0
   -0.0934   26.4371    9.0267 C   0  0  0  0  0  0  0  0  0  0  0  0
    5.9880   21.4010    6.4747 C   0  0  0  0  0  0  0  0  0  0  0  0
    5.1872   21.4243    8.7102 C   0  0  0  0  0  0  0  0  0  0  0  0
    0.8679   31.4020    7.2192 C   0  0  0  0  0  0  0  0  0  0  0  0
    5.8289   22.9330    6.4636 C   0  0  0  0  0  0  0  0  0  0  0  0
    4.4261   22.7467    8.6086 C   0  0  0  0  0  0  0  0  0  0  0  0
   -0.1722   30.7951    7.9012 C   0  0  0  0  0  0  0  0  0  0  0  0
    2.9602   26.6773    7.8608 C   0  0  0  0  0  0  0  0  0  0  0  0
    4.4133   26.8822    5.9870 C   0  0  0  0  0  0  0  0  0  0  0  0
    3.3814   25.3499    8.0259 C   0  0  0  0  0  0  0  0  0  0  0  0
    4.8664   25.5678    6.1529 C   0  0  0  0  0  0  0  0  0  0  0  0
   -3.0443   28.2055   10.3769 C   0  0  0  0  0  0  0  0  0  0  0  0
    1.9813   29.3530    7.0485 C   0  0  0  0  0  0  0  0  0  0  0  0
   -1.1207   28.8186    8.9092 C   0  0  0  0  0  0  0  0  0  0  0  0
    3.4780   27.4670    6.8450 C   0  0  0  0  0  0  0  0  0  0  0  0
   -0.1053   29.4236    8.1498 C   0  0  0  0  0  0  0  0  0  0  0  0
    4.3477   24.7922    7.1856 C   0  0  0  0  0  0  0  0  0  0  0  0
   -1.1467   27.4928    9.3742 C   0  0  0  0  0  0  0  0  0  0  0  0
    5.3385   19.7832    7.5320 H   0  0  0  0  0  0  0  0  0  0  0  0
    3.7119   29.2863    6.0481 H   0  0  0  0  0  0  0  0  0  0  0  0
   -1.6707   25.2367   10.4536 H   0  0  0  0  0  0  0  0  0  0  0  0
   -2.4246   25.9106   11.7358 H   0  0  0  0  0  0  0  0  0  0  0  0
   -3.2853   25.4784   10.4171 H   0  0  0  0  0  0  0  0  0  0  0  0
    0.6059   26.8447    8.4394 H   0  0  0  0  0  0  0  0  0  0  0  0
    0.3316   26.1009    9.8671 H   0  0  0  0  0  0  0  0  0  0  0  0
   -0.5298   25.6762    8.5464 H   0  0  0  0  0  0  0  0  0  0  0  0
    5.7961   21.0526    5.5572 H   0  0  0  0  0  0  0  0  0  0  0  0
    6.9303   21.1789    6.7253 H   0  0  0  0  0  0  0  0  0  0  0  0
    6.1485   21.6014    8.9212 H   0  0  0  0  0  0  0  0  0  0  0  0
    4.7870   20.8569    9.4298 H   0  0  0  0  0  0  0  0  0  0  0  0
    0.8358   32.3821    7.0234 H   0  0  0  0  0  0  0  0  0  0  0  0
    6.7100   23.3363    6.7105 H   0  0  0  0  0  0  0  0  0  0  0  0
    5.5838   23.2108    5.5347 H   0  0  0  0  0  0  0  0  0  0  0  0
    3.4439   22.5598    8.5871 H   0  0  0  0  0  0  0  0  0  0  0  0
    4.6406   23.3115    9.4054 H   0  0  0  0  0  0  0  0  0  0  0  0
   -0.9584   31.3302    8.2104 H   0  0  0  0  0  0  0  0  0  0  0  0
    2.2777   27.0595    8.4837 H   0  0  0  0  0  0  0  0  0  0  0  0
    4.7724   27.4227    5.2262 H   0  0  0  0  0  0  0  0  0  0  0  0
    2.9838   24.7944    8.7561 H   0  0  0  0  0  0  0  0  0  0  0  0
    5.5561   25.1900    5.5352 H   0  0  0  0  0  0  0  0  0  0  0  0
  1 21  1  0  0  0  0
  1 23  1  0  0  0  0
  2 21  2  0  0  0  0
  3 11  1  0  0  0  0
  3 12  1  0  0  0  0
  4 13  1  0  0  0  0
  4 22  2  0  0  0  0
  5 22  1  0  0  0  0
  5 24  1  0  0  0  0
  6 22  1  0  0  0  0
  6 25  2  0  0  0  0
  7 14  1  0  0  0  0
  7 15  1  0  0  0  0
  7 26  1  0  0  0  0
  8  9  1  0  0  0  0
  8 21  1  0  0  0  0
  8 27  1  0  0  0  0
 10 27  1  0  0  0  0
 11 14  1  0  0  0  0
 12 15  1  0  0  0  0
 13 16  2  0  0  0  0
 16 25  1  0  0  0  0
 17 19  1  0  0  0  0
 17 24  2  0  0  0  0
 18 20  2  0  0  0  0
 18 24  1  0  0  0  0
 19 26  2  0  0  0  0
 20 26  1  0  0  0  0
 23 25  1  0  0  0  0
 23 27  2  0  0  0  0
  3 28  1  0  0  0  0
  5 29  1  0  0  0  0
  9 30  1  0  0  0  0
  9 31  1  0  0  0  0
  9 32  1  0  0  0  0
 10 33  1  0  0  0  0
 10 34  1  0  0  0  0
 10 35  1  0  0  0  0
 11 36  1  0  0  0  0
 11 37  1  0  0  0  0
 12 38  1  0  0  0  0
 12 39  1  0  0  0  0
 13 40  1  0  0  0  0
 14 41  1  0  0  0  0
 14 42  1  0  0  0  0
 15 43  1  0  0  0  0
 15 44  1  0  0  0  0
 16 45  1  0  0  0  0
 17 46  1  0  0  0  0
 18 47  1  0  0  0  0
 19 48  1  0  0  0  0
 20 49  1  0  0  0  0
M  END
$$$$
