EZR_A_300
          05071912473D 1   1.00000     0.00000     0
            
 61 66  0  0  0  0            999 V2000
   -4.5334   29.5402   10.2807 O   0  0  0  0  0  0  0  0  0  0  0  0
   -5.7249   33.3794   12.8609 N   0  0  0  0  0  0  0  0  0  0  0  0
    0.4814   31.5189    6.9757 N   0  0  0  0  0  0  0  0  0  0  0  0
    1.4113   30.6775    6.5048 N   0  0  0  0  0  0  0  0  0  0  0  0
    3.0386   28.3267    6.0606 N   0  0  0  0  0  0  0  0  0  0  0  0
    1.9718   27.2610    7.6711 N   0  0  0  0  0  0  0  0  0  0  0  0
    2.2335   23.0722   10.9789 N   0  0  0  0  0  0  0  0  0  0  0  0
    2.6574   24.4653    8.5657 N   0  0  0  0  0  0  0  0  0  0  0  0
   -5.8549   29.3312   10.7536 C   0  0  0  0  0  0  0  0  0  0  0  0
    1.2047   22.1001   11.4024 C   0  0  0  0  0  0  0  0  0  0  0  0
    3.2074   22.5181    9.9889 C   0  0  0  0  0  0  0  0  0  0  0  0
    1.6896   24.4322   10.7271 C   0  0  0  0  0  0  0  0  0  0  0  0
    2.9851   23.0434    8.5805 C   0  0  0  0  0  0  0  0  0  0  0  0
    2.6939   25.1413    9.8455 C   0  0  0  0  0  0  0  0  0  0  0  0
    5.0380   25.2940    5.8345 C   0  0  0  0  0  0  0  0  0  0  0  0
   -3.6218   33.3182   11.6672 C   0  0  0  0  0  0  0  0  0  0  0  0
    4.6981   26.5720    5.4524 C   0  0  0  0  0  0  0  0  0  0  0  0
    4.3727   24.6267    6.8368 C   0  0  0  0  0  0  0  0  0  0  0  0
   -1.6022   29.4585    9.7110 C   0  0  0  0  0  0  0  0  0  0  0  0
   -2.7413   32.6477   10.8534 C   0  0  0  0  0  0  0  0  0  0  0  0
   -0.5581   28.8787    9.0168 C   0  0  0  0  0  0  0  0  0  0  0  0
   -5.0949   31.4656   11.5531 C   0  0  0  0  0  0  0  0  0  0  0  0
   -1.3583   31.5698    8.6235 C   0  0  0  0  0  0  0  0  0  0  0  0
    2.0366   28.3775    6.9829 C   0  0  0  0  0  0  0  0  0  0  0  0
   -4.2068   30.8028   10.7314 C   0  0  0  0  0  0  0  0  0  0  0  0
   -4.8109   32.7247   12.0274 C   0  0  0  0  0  0  0  0  0  0  0  0
    3.6458   27.1114    6.1575 C   0  0  0  0  0  0  0  0  0  0  0  0
   -0.3370   30.9821    7.9222 C   0  0  0  0  0  0  0  0  0  0  0  0
    1.1735   29.5545    7.1850 C   0  0  0  0  0  0  0  0  0  0  0  0
    2.9653   26.4595    7.1664 C   0  0  0  0  0  0  0  0  0  0  0  0
    3.3232   25.1741    7.5469 C   0  0  0  0  0  0  0  0  0  0  0  0
   -1.9973   30.7689    9.5400 C   0  0  0  0  0  0  0  0  0  0  0  0
   -3.0135   31.3839   10.3638 C   0  0  0  0  0  0  0  0  0  0  0  0
    0.0912   29.6843    8.0958 C   0  0  0  0  0  0  0  0  0  0  0  0
   -6.5832   32.9314   13.1112 H   0  0  0  0  0  0  0  0  0  0  0  0
   -5.5197   34.2952   13.2062 H   0  0  0  0  0  0  0  0  0  0  0  0
    0.3954   32.4633    6.6584 H   0  0  0  0  0  0  0  0  0  0  0  0
    3.2854   29.0561    5.4226 H   0  0  0  0  0  0  0  0  0  0  0  0
   -6.1724   28.4272   10.4670 H   0  0  0  0  0  0  0  0  0  0  0  0
   -5.8644   29.3868   11.7520 H   0  0  0  0  0  0  0  0  0  0  0  0
   -6.4592   30.0322   10.3749 H   0  0  0  0  0  0  0  0  0  0  0  0
    0.5888   22.5323   12.0611 H   0  0  0  0  0  0  0  0  0  0  0  0
    0.6818   21.7994   10.6048 H   0  0  0  0  0  0  0  0  0  0  0  0
    1.6471   21.3107   11.8280 H   0  0  0  0  0  0  0  0  0  0  0  0
    3.1168   21.5223    9.9757 H   0  0  0  0  0  0  0  0  0  0  0  0
    4.1320   22.7648   10.2790 H   0  0  0  0  0  0  0  0  0  0  0  0
    1.5791   24.9251   11.5901 H   0  0  0  0  0  0  0  0  0  0  0  0
    0.8060   24.3702   10.2631 H   0  0  0  0  0  0  0  0  0  0  0  0
    3.8195   22.9001    8.0482 H   0  0  0  0  0  0  0  0  0  0  0  0
    2.2319   22.5354    8.1628 H   0  0  0  0  0  0  0  0  0  0  0  0
    2.4416   26.1029    9.7368 H   0  0  0  0  0  0  0  0  0  0  0  0
    3.6091   25.0799   10.2439 H   0  0  0  0  0  0  0  0  0  0  0  0
    5.7940   24.8352    5.3677 H   0  0  0  0  0  0  0  0  0  0  0  0
   -3.3997   34.2356   11.9973 H   0  0  0  0  0  0  0  0  0  0  0  0
    5.1745   27.0662    4.7251 H   0  0  0  0  0  0  0  0  0  0  0  0
    4.6644   23.6972    7.0626 H   0  0  0  0  0  0  0  0  0  0  0  0
   -2.0986   28.8977   10.3736 H   0  0  0  0  0  0  0  0  0  0  0  0
   -1.8773   33.0871   10.6077 H   0  0  0  0  0  0  0  0  0  0  0  0
   -0.2858   27.9289    9.1708 H   0  0  0  0  0  0  0  0  0  0  0  0
   -5.9560   31.0250   11.8069 H   0  0  0  0  0  0  0  0  0  0  0  0
   -1.6223   32.5232    8.4771 H   0  0  0  0  0  0  0  0  0  0  0  0
  1  9  1  0  0  0  0
  1 25  1  0  0  0  0
  2 26  1  0  0  0  0
  3  4  1  0  0  0  0
  3 28  1  0  0  0  0
  4 29  2  0  0  0  0
  5 24  1  0  0  0  0
  5 27  1  0  0  0  0
  6 24  2  0  0  0  0
  6 30  1  0  0  0  0
  7 10  1  0  0  0  0
  7 11  1  0  0  0  0
  7 12  1  0  0  0  0
  8 13  1  0  0  0  0
  8 14  1  0  0  0  0
  8 31  1  0  0  0  0
 11 13  1  0  0  0  0
 12 14  1  0  0  0  0
 15 17  1  0  0  0  0
 15 18  2  0  0  0  0
 16 20  1  0  0  0  0
 16 26  2  0  0  0  0
 17 27  2  0  0  0  0
 18 31  1  0  0  0  0
 19 21  1  0  0  0  0
 19 32  2  0  0  0  0
 20 33  2  0  0  0  0
 21 34  2  0  0  0  0
 22 25  2  0  0  0  0
 22 26  1  0  0  0  0
 23 28  2  0  0  0  0
 23 32  1  0  0  0  0
 24 29  1  0  0  0  0
 25 33  1  0  0  0  0
 27 30  1  0  0  0  0
 28 34  1  0  0  0  0
 29 34  1  0  0  0  0
 30 31  2  0  0  0  0
 32 33  1  0  0  0  0
  2 35  1  0  0  0  0
  2 36  1  0  0  0  0
  3 37  1  0  0  0  0
  5 38  1  0  0  0  0
  9 39  1  0  0  0  0
  9 40  1  0  0  0  0
  9 41  1  0  0  0  0
 10 42  1  0  0  0  0
 10 43  1  0  0  0  0
 10 44  1  0  0  0  0
 11 45  1  0  0  0  0
 11 46  1  0  0  0  0
 12 47  1  0  0  0  0
 12 48  1  0  0  0  0
 13 49  1  0  0  0  0
 13 50  1  0  0  0  0
 14 51  1  0  0  0  0
 14 52  1  0  0  0  0
 15 53  1  0  0  0  0
 16 54  1  0  0  0  0
 17 55  1  0  0  0  0
 18 56  1  0  0  0  0
 19 57  1  0  0  0  0
 20 58  1  0  0  0  0
 21 59  1  0  0  0  0
 22 60  1  0  0  0  0
 23 61  1  0  0  0  0
M  END
$$$$
