B98_A_299
          05071912473D 1   1.00000     0.00000     0
            
 34 36  0  0  0  0            999 V2000
   -3.1614   29.1360    9.8272 S   0  0  0  0  0  0  0  0  0  0  0  0
   -4.7674   26.9431   10.8652 O   0  0  0  0  0  0  0  0  0  0  0  0
    1.6519   30.2206    6.7426 O   0  0  0  0  0  0  0  0  0  0  0  0
   -1.6230   25.1911   13.3088 N   0  0  0  0  0  0  0  0  0  0  0  0
   -0.8018   26.1485    9.1792 N   0  0  0  0  0  0  0  0  0  0  0  0
   -3.1646   25.4257   11.1647 N   0  0  0  0  0  0  0  0  0  0  0  0
    2.0662   28.9751    6.2006 C   0  0  0  0  0  0  0  0  0  0  0  0
   -0.9082   25.2422   12.0018 C   0  0  0  0  0  0  0  0  0  0  0  0
   -1.4440   24.8885    9.5017 C   0  0  0  0  0  0  0  0  0  0  0  0
   -1.4957   30.8586    8.4395 C   0  0  0  0  0  0  0  0  0  0  0  0
   -0.3357   31.0247    7.7181 C   0  0  0  0  0  0  0  0  0  0  0  0
    0.2181   28.6973    7.9643 C   0  0  0  0  0  0  0  0  0  0  0  0
   -3.5978   26.6323   10.6788 C   0  0  0  0  0  0  0  0  0  0  0  0
   -1.7796   29.6012    8.9087 C   0  0  0  0  0  0  0  0  0  0  0  0
   -2.6888   27.4931    9.9521 C   0  0  0  0  0  0  0  0  0  0  0  0
    0.5007   29.9626    7.4829 C   0  0  0  0  0  0  0  0  0  0  0  0
   -1.8971   24.8083   10.9429 C   0  0  2  0  0  0  0  0  0  0  0  0
   -1.4836   27.3194    9.2911 C   0  0  0  0  0  0  0  0  0  0  0  0
   -0.9515   28.5083    8.6963 C   0  0  0  0  0  0  0  0  0  0  0  0
   -1.0013   25.4722   14.0399 H   0  0  0  0  0  0  0  0  0  0  0  0
   -2.4087   25.8091   13.2834 H   0  0  0  0  0  0  0  0  0  0  0  0
    0.1498   26.1560    8.8721 H   0  0  0  0  0  0  0  0  0  0  0  0
   -3.8093   24.9214   11.7392 H   0  0  0  0  0  0  0  0  0  0  0  0
    2.8948   29.1074    5.6567 H   0  0  0  0  0  0  0  0  0  0  0  0
    2.2545   28.3339    6.9445 H   0  0  0  0  0  0  0  0  0  0  0  0
    1.3409   28.6070    5.6188 H   0  0  0  0  0  0  0  0  0  0  0  0
   -0.1237   24.6222   12.0144 H   0  0  0  0  0  0  0  0  0  0  0  0
   -0.5941   26.1736   11.8178 H   0  0  0  0  0  0  0  0  0  0  0  0
   -0.7954   24.1470    9.3298 H   0  0  0  0  0  0  0  0  0  0  0  0
   -2.2424   24.7769    8.9100 H   0  0  0  0  0  0  0  0  0  0  0  0
   -2.1103   31.6276    8.6154 H   0  0  0  0  0  0  0  0  0  0  0  0
   -0.0997   31.9287    7.3617 H   0  0  0  0  0  0  0  0  0  0  0  0
    0.8406   27.9341    7.7904 H   0  0  0  0  0  0  0  0  0  0  0  0
   -2.0492   23.8347   11.1133 H   0  0  0  0  0  0  0  0  0  0  0  0
  1 14  1  0  0  0  0
  1 15  1  0  0  0  0
  2 13  2  0  0  0  0
  3  7  1  0  0  0  0
  3 16  1  0  0  0  0
  4  8  1  0  0  0  0
  5  9  1  0  0  0  0
  5 18  1  0  0  0  0
  6 13  1  0  0  0  0
  6 17  1  0  0  0  0
  8 17  1  0  0  0  0
  9 17  1  0  0  0  0
 10 11  1  0  0  0  0
 10 14  2  0  0  0  0
 11 16  2  0  0  0  0
 12 16  1  0  0  0  0
 12 19  2  0  0  0  0
 13 15  1  0  0  0  0
 14 19  1  0  0  0  0
 15 18  2  0  0  0  0
 18 19  1  0  0  0  0
  4 20  1  0  0  0  0
  4 21  1  0  0  0  0
  5 22  1  0  0  0  0
  6 23  1  0  0  0  0
  7 24  1  0  0  0  0
  7 25  1  0  0  0  0
  7 26  1  0  0  0  0
  8 27  1  0  0  0  0
  8 28  1  0  0  0  0
  9 29  1  0  0  0  0
  9 30  1  0  0  0  0
 10 31  1  0  0  0  0
 11 32  1  0  0  0  0
 12 33  1  0  0  0  0
 17 34  1  0  0  0  0
M  END
$$$$
