EFP_A_999
          05071912473D 1   1.00000     0.00000     0
            
 47 49  0  0  0  0            999 V2000
   -4.3296   29.1004   11.7160 O   0  0  0  0  0  0  0  0  0  0  0  0
    2.5801   26.6518    8.1163 O   0  0  0  0  0  0  0  0  0  0  0  0
    4.9617   23.1536    3.1735 O   0  0  0  0  0  0  0  0  0  0  0  0
    1.8777   30.7787    6.6951 N   0  0  0  0  0  0  0  0  0  0  0  0
    3.0945   28.7164    7.0594 N   0  0  0  0  0  0  0  0  0  0  0  0
   -2.9582   28.1569   10.1304 N   0  0  0  0  0  0  0  0  0  0  0  0
   -0.0323   30.2866    7.6601 N   0  0  0  0  0  0  0  0  0  0  0  0
    6.2645   22.9146    2.6244 C   0  0  0  0  0  0  0  0  0  0  0  0
   -4.1743   26.6792   11.6374 C   0  0  0  0  0  0  0  0  0  0  0  0
    0.6766   31.2390    7.0084 C   0  0  0  0  0  0  0  0  0  0  0  0
    0.7476   29.1517    7.7986 C   0  0  0  0  0  0  0  0  0  0  0  0
    5.2348   25.4283    3.9510 C   0  0  0  0  0  0  0  0  0  0  0  0
    4.5836   23.6610    5.4608 C   0  0  0  0  0  0  0  0  0  0  0  0
    5.1932   26.3254    5.0053 C   0  0  0  0  0  0  0  0  0  0  0  0
    4.5096   24.5737    6.5352 C   0  0  0  0  0  0  0  0  0  0  0  0
    4.7802   26.9764    7.3406 C   0  0  0  0  0  0  0  0  0  0  0  0
   -1.4519   30.1165    9.6672 C   0  0  0  0  0  0  0  0  0  0  0  0
   -2.3807   29.2310    7.9177 C   0  0  0  0  0  0  0  0  0  0  0  0
   -3.8602   28.0899   11.1794 C   0  0  0  0  0  0  0  0  0  0  0  0
    3.3463   27.4471    7.5534 C   0  0  0  0  0  0  0  0  0  0  0  0
    1.9381   29.4730    7.1450 C   0  0  0  0  0  0  0  0  0  0  0  0
    4.9263   24.0826    4.1781 C   0  0  0  0  0  0  0  0  0  0  0  0
   -2.8467   29.4506    9.3968 C   0  0  0  0  0  0  0  0  0  0  0  0
   -1.3937   30.3926    8.1493 C   0  0  0  0  0  0  0  0  0  0  0  0
    4.8285   25.9091    6.2924 C   0  0  0  0  0  0  0  0  0  0  0  0
    3.8546   29.1467    6.5726 H   0  0  0  0  0  0  0  0  0  0  0  0
   -2.4018   27.3664    9.8742 H   0  0  0  0  0  0  0  0  0  0  0  0
    6.2004   22.2270    1.9012 H   0  0  0  0  0  0  0  0  0  0  0  0
    6.6271   23.7655    2.2442 H   0  0  0  0  0  0  0  0  0  0  0  0
    6.8745   22.5848    3.3449 H   0  0  0  0  0  0  0  0  0  0  0  0
   -3.6858   26.0248   11.0602 H   0  0  0  0  0  0  0  0  0  0  0  0
   -3.8857   26.5654   12.5881 H   0  0  0  0  0  0  0  0  0  0  0  0
   -5.1584   26.5169   11.5661 H   0  0  0  0  0  0  0  0  0  0  0  0
    0.3414   32.1566    6.7948 H   0  0  0  0  0  0  0  0  0  0  0  0
    0.5121   28.2970    8.2612 H   0  0  0  0  0  0  0  0  0  0  0  0
    5.4836   25.7401    3.0340 H   0  0  0  0  0  0  0  0  0  0  0  0
    4.3864   22.6942    5.6235 H   0  0  0  0  0  0  0  0  0  0  0  0
    5.4269   27.2845    4.8456 H   0  0  0  0  0  0  0  0  0  0  0  0
    4.2354   24.2700    7.4476 H   0  0  0  0  0  0  0  0  0  0  0  0
    5.1381   26.6109    8.1998 H   0  0  0  0  0  0  0  0  0  0  0  0
    5.3414   27.7509    7.0484 H   0  0  0  0  0  0  0  0  0  0  0  0
   -0.7479   29.4936   10.0084 H   0  0  0  0  0  0  0  0  0  0  0  0
   -1.4808   30.9340   10.2423 H   0  0  0  0  0  0  0  0  0  0  0  0
   -3.0815   29.4071    7.2264 H   0  0  0  0  0  0  0  0  0  0  0  0
   -1.9522   28.3452    7.7398 H   0  0  0  0  0  0  0  0  0  0  0  0
   -3.6310   30.0619    9.5031 H   0  0  0  0  0  0  0  0  0  0  0  0
   -1.8017   31.2759    7.9184 H   0  0  0  0  0  0  0  0  0  0  0  0
  1 19  2  0  0  0  0
  2 20  2  0  0  0  0
  3  8  1  0  0  0  0
  3 22  1  0  0  0  0
  4 10  2  0  0  0  0
  4 21  1  0  0  0  0
  5 20  1  0  0  0  0
  5 21  1  0  0  0  0
  6 19  1  0  0  0  0
  6 23  1  0  0  0  0
  7 10  1  0  0  0  0
  7 11  1  0  0  0  0
  7 24  1  0  0  0  0
  9 19  1  0  0  0  0
 11 21  2  0  0  0  0
 12 14  2  0  0  0  0
 12 22  1  0  0  0  0
 13 15  1  0  0  0  0
 13 22  2  0  0  0  0
 14 25  1  0  0  0  0
 15 25  2  0  0  0  0
 16 20  1  0  0  0  0
 16 25  1  0  0  0  0
 17 23  1  0  0  0  0
 17 24  1  0  0  0  0
 18 23  1  0  0  0  0
 18 24  1  0  0  0  0
  5 26  1  0  0  0  0
  6 27  1  0  0  0  0
  8 28  1  0  0  0  0
  8 29  1  0  0  0  0
  8 30  1  0  0  0  0
  9 31  1  0  0  0  0
  9 32  1  0  0  0  0
  9 33  1  0  0  0  0
 10 34  1  0  0  0  0
 11 35  1  0  0  0  0
 12 36  1  0  0  0  0
 13 37  1  0  0  0  0
 14 38  1  0  0  0  0
 15 39  1  0  0  0  0
 16 40  1  0  0  0  0
 16 41  1  0  0  0  0
 17 42  1  0  0  0  0
 17 43  1  0  0  0  0
 18 44  1  0  0  0  0
 18 45  1  0  0  0  0
 23 46  1  0  0  0  0
 24 47  1  0  0  0  0
M  END
$$$$
