EFQ_A_999
          05071912473D 1   1.00000     0.00000     0
            
 41 43  0  0  0  0            999 V2000
    2.5330   26.7514    8.1274 O   0  0  0  0  0  0  0  0  0  0  0  0
   -3.1535   28.7999   10.5019 O   0  0  0  0  0  0  0  0  0  0  0  0
    4.7743   23.0328    3.0098 O   0  0  0  0  0  0  0  0  0  0  0  0
    1.8275   30.5590    6.5438 N   0  0  0  0  0  0  0  0  0  0  0  0
    3.1410   28.4861    6.7556 N   0  0  0  0  0  0  0  0  0  0  0  0
   -0.0504   30.0479    7.5791 N   0  0  0  0  0  0  0  0  0  0  0  0
    5.9794   23.0876    2.2402 C   0  0  0  0  0  0  0  0  0  0  0  0
    0.6322   31.0010    6.9191 C   0  0  0  0  0  0  0  0  0  0  0  0
    0.7312   28.9506    7.6536 C   0  0  0  0  0  0  0  0  0  0  0  0
    4.5786   23.5917    5.3112 C   0  0  0  0  0  0  0  0  0  0  0  0
    5.0223   25.3680    3.7757 C   0  0  0  0  0  0  0  0  0  0  0  0
    4.5559   24.5240    6.3318 C   0  0  0  0  0  0  0  0  0  0  0  0
    4.9986   26.3082    4.7931 C   0  0  0  0  0  0  0  0  0  0  0  0
    4.7658   26.8378    7.2398 C   0  0  0  0  0  0  0  0  0  0  0  0
   -2.3917   29.1785    8.1121 C   0  0  0  0  0  0  0  0  0  0  0  0
   -1.4248   30.3014    9.6509 C   0  0  0  0  0  0  0  0  0  0  0  0
    3.3531   27.3358    7.4252 C   0  0  0  0  0  0  0  0  0  0  0  0
    1.9290   29.2823    6.9856 C   0  0  0  0  0  0  0  0  0  0  0  0
   -2.8748   29.7452    9.4673 C   0  0  0  0  0  0  0  0  0  0  0  0
    4.7812   24.0167    4.0095 C   0  0  0  0  0  0  0  0  0  0  0  0
   -1.3626   30.3369    8.0752 C   0  0  0  0  0  0  0  0  0  0  0  0
    4.7709   25.8683    6.1012 C   0  0  0  0  0  0  0  0  0  0  0  0
   -3.4555   29.2839   11.3232 H   0  0  0  0  0  0  0  0  0  0  0  0
    3.8192   28.8019    6.0921 H   0  0  0  0  0  0  0  0  0  0  0  0
    5.9563   22.3801    1.5339 H   0  0  0  0  0  0  0  0  0  0  0  0
    6.0591   23.9864    1.8092 H   0  0  0  0  0  0  0  0  0  0  0  0
    6.7650   22.9345    2.8397 H   0  0  0  0  0  0  0  0  0  0  0  0
    0.2856   31.9208    6.7353 H   0  0  0  0  0  0  0  0  0  0  0  0
    0.5074   28.0803    8.0923 H   0  0  0  0  0  0  0  0  0  0  0  0
    4.4501   22.6204    5.5113 H   0  0  0  0  0  0  0  0  0  0  0  0
    5.2190   25.6698    2.8428 H   0  0  0  0  0  0  0  0  0  0  0  0
    4.3782   24.2151    7.2662 H   0  0  0  0  0  0  0  0  0  0  0  0
    5.1410   27.2784    4.5968 H   0  0  0  0  0  0  0  0  0  0  0  0
    5.0770   26.3826    8.0741 H   0  0  0  0  0  0  0  0  0  0  0  0
    5.3718   27.6061    7.0335 H   0  0  0  0  0  0  0  0  0  0  0  0
   -3.0746   29.2034    7.3820 H   0  0  0  0  0  0  0  0  0  0  0  0
   -1.9896   28.2643    8.1614 H   0  0  0  0  0  0  0  0  0  0  0  0
   -0.7818   29.6706   10.0853 H   0  0  0  0  0  0  0  0  0  0  0  0
   -1.3679   31.1947   10.0966 H   0  0  0  0  0  0  0  0  0  0  0  0
   -3.5696   30.4588    9.3786 H   0  0  0  0  0  0  0  0  0  0  0  0
   -1.7430   31.1790    7.6928 H   0  0  0  0  0  0  0  0  0  0  0  0
  1 17  2  0  0  0  0
  2 19  1  0  0  0  0
  3  7  1  0  0  0  0
  3 20  1  0  0  0  0
  4  8  2  0  0  0  0
  4 18  1  0  0  0  0
  5 17  1  0  0  0  0
  5 18  1  0  0  0  0
  6  8  1  0  0  0  0
  6  9  1  0  0  0  0
  6 21  1  0  0  0  0
  9 18  2  0  0  0  0
 10 12  2  0  0  0  0
 10 20  1  0  0  0  0
 11 13  1  0  0  0  0
 11 20  2  0  0  0  0
 12 22  1  0  0  0  0
 13 22  2  0  0  0  0
 14 17  1  0  0  0  0
 14 22  1  0  0  0  0
 15 19  1  0  0  0  0
 15 21  1  0  0  0  0
 16 19  1  0  0  0  0
 16 21  1  0  0  0  0
  2 23  1  0  0  0  0
  5 24  1  0  0  0  0
  7 25  1  0  0  0  0
  7 26  1  0  0  0  0
  7 27  1  0  0  0  0
  8 28  1  0  0  0  0
  9 29  1  0  0  0  0
 10 30  1  0  0  0  0
 11 31  1  0  0  0  0
 12 32  1  0  0  0  0
 13 33  1  0  0  0  0
 14 34  1  0  0  0  0
 14 35  1  0  0  0  0
 15 36  1  0  0  0  0
 15 37  1  0  0  0  0
 16 38  1  0  0  0  0
 16 39  1  0  0  0  0
 19 40  1  0  0  0  0
 21 41  1  0  0  0  0
M  END
$$$$
