2BZ_A_299
          05071912473D 1   1.00000     0.00000     0
            
 37 40  0  0  0  0            999 V2000
    0.6720   27.6161   11.5462 Cl  0  0  0  0  0  0  0  0  0  0  0  0
    3.8453   22.8220    8.9578 O   0  5  0  0  0  0  0  0  0  0  0  0
    5.6225   23.0611    7.6951 O   0  0  0  0  0  0  0  0  0  0  0  0
    1.6142   30.7779    6.3234 N   0  0  0  0  0  0  0  0  0  0  0  0
    0.5024   31.2821    6.8818 N   0  0  0  0  0  0  0  0  0  0  0  0
    2.6653   28.6713    6.4538 N   0  0  0  0  0  0  0  0  0  0  0  0
    0.1968   28.1144    8.3590 N   0  0  0  0  0  0  0  0  0  0  0  0
    4.5471   23.4760    8.1673 N   0  3  0  0  0  0  0  0  0  0  0  0
   -1.4087   30.7547    8.4014 C   0  0  0  0  0  0  0  0  0  0  0  0
   -1.2698   24.1240   10.9681 C   0  0  0  0  0  0  0  0  0  0  0  0
   -1.1521   23.9022    9.5689 C   0  0  0  0  0  0  0  0  0  0  0  0
   -0.6971   25.2807   11.5651 C   0  0  0  0  0  0  0  0  0  0  0  0
    4.2965   26.8886    6.4623 C   0  0  0  0  0  0  0  0  0  0  0  0
    4.8128   25.6198    6.8491 C   0  0  0  0  0  0  0  0  0  0  0  0
   -0.4574   24.8350    8.7508 C   0  0  0  0  0  0  0  0  0  0  0  0
    2.8104   25.2952    8.2341 C   0  0  0  0  0  0  0  0  0  0  0  0
    1.6708   29.5232    6.7873 C   0  0  0  0  0  0  0  0  0  0  0  0
    0.0033   26.2276   10.7629 C   0  0  0  0  0  0  0  0  0  0  0  0
   -0.1628   30.4030    7.6869 C   0  0  0  0  0  0  0  0  0  0  0  0
    3.0242   27.3966    6.9453 C   0  0  0  0  0  0  0  0  0  0  0  0
    4.0580   24.8172    7.7433 C   0  0  0  0  0  0  0  0  0  0  0  0
    0.5842   29.2488    7.6389 C   0  0  0  0  0  0  0  0  0  0  0  0
    0.8818   26.9992    8.4593 C   0  0  0  0  0  0  0  0  0  0  0  0
    0.1303   26.0086    9.3499 C   0  0  0  0  0  0  0  0  0  0  0  0
    2.2551   26.5853    7.8583 C   0  0  0  0  0  0  0  0  0  0  0  0
    2.2529   31.2342    5.7039 H   0  0  0  0  0  0  0  0  0  0  0  0
    3.2585   29.0062    5.7216 H   0  0  0  0  0  0  0  0  0  0  0  0
   -1.7235   29.9665    8.9302 H   0  0  0  0  0  0  0  0  0  0  0  0
   -1.2338   31.5218    9.0186 H   0  0  0  0  0  0  0  0  0  0  0  0
   -2.1113   31.0136    7.7386 H   0  0  0  0  0  0  0  0  0  0  0  0
   -1.7586   23.4621   11.5364 H   0  0  0  0  0  0  0  0  0  0  0  0
   -1.5596   23.0866    9.1581 H   0  0  0  0  0  0  0  0  0  0  0  0
   -0.7862   25.4299   12.5498 H   0  0  0  0  0  0  0  0  0  0  0  0
    4.8310   27.4528    5.8331 H   0  0  0  0  0  0  0  0  0  0  0  0
    5.6921   25.2995    6.4967 H   0  0  0  0  0  0  0  0  0  0  0  0
   -0.3766   24.6785    7.7664 H   0  0  0  0  0  0  0  0  0  0  0  0
    2.2928   24.7180    8.8656 H   0  0  0  0  0  0  0  0  0  0  0  0
  1 18  1  0  0  0  0
  2  8  1  0  0  0  0
  3  8  2  0  0  0  0
  4  5  1  0  0  0  0
  4 17  1  0  0  0  0
  5 19  2  0  0  0  0
  6 17  1  0  0  0  0
  6 20  1  0  0  0  0
  7 22  1  0  0  0  0
  7 23  2  0  0  0  0
  8 21  1  0  0  0  0
  9 19  1  0  0  0  0
 10 11  2  0  0  0  0
 10 12  1  0  0  0  0
 11 15  1  0  0  0  0
 12 18  2  0  0  0  0
 13 14  1  0  0  0  0
 13 20  2  0  0  0  0
 14 21  2  0  0  0  0
 15 24  2  0  0  0  0
 16 21  1  0  0  0  0
 16 25  2  0  0  0  0
 17 22  2  0  0  0  0
 18 24  1  0  0  0  0
 19 22  1  0  0  0  0
 20 25  1  0  0  0  0
 23 24  1  0  0  0  0
 23 25  1  0  0  0  0
  4 26  1  0  0  0  0
  6 27  1  0  0  0  0
  9 28  1  0  0  0  0
  9 29  1  0  0  0  0
  9 30  1  0  0  0  0
 10 31  1  0  0  0  0
 11 32  1  0  0  0  0
 12 33  1  0  0  0  0
 13 34  1  0  0  0  0
 14 35  1  0  0  0  0
 15 36  1  0  0  0  0
 16 37  1  0  0  0  0
M  CHG  2   2  -1   8   1
M  END
$$$$
