A27_A_299
          05071912473D 1   1.00000     0.00000     0
            
 49 52  0  0  0  0            999 V2000
    3.0987   26.7646    7.8776 O   0  0  0  0  0  0  0  0  0  0  0  0
   -5.8725   30.7270   11.9984 O   0  0  0  0  0  0  0  0  0  0  0  0
    2.0855   30.6491    6.4210 N   0  0  0  0  0  0  0  0  0  0  0  0
    1.0577   31.1872    6.8459 N   0  0  0  0  0  0  0  0  0  0  0  0
    3.3005   28.6812    6.6280 N   0  0  0  0  0  0  0  0  0  0  0  0
    6.0585   25.7436    4.5802 C   0  0  0  0  0  0  0  0  0  0  0  0
    4.8725   26.5895    5.0402 C   0  0  0  0  0  0  0  0  0  0  0  0
   -1.5026   25.1077   11.9206 C   0  0  0  0  0  0  0  0  0  0  0  0
   -1.4960   24.8836   10.5400 C   0  0  0  0  0  0  0  0  0  0  0  0
   -1.1803   26.3752   12.4278 C   0  0  0  0  0  0  0  0  0  0  0  0
    5.0369   27.0298    6.4946 C   0  0  0  0  0  0  0  0  0  0  0  0
   -3.7412   31.3452   11.1745 C   0  0  0  0  0  0  0  0  0  0  0  0
   -4.6051   29.1284   10.7503 C   0  0  0  0  0  0  0  0  0  0  0  0
   -1.1671   25.9390    9.6678 C   0  0  0  0  0  0  0  0  0  0  0  0
   -0.8616   27.4207   11.5572 C   0  0  0  0  0  0  0  0  0  0  0  0
   -2.6003   31.0310   10.4492 C   0  0  0  0  0  0  0  0  0  0  0  0
   -3.4666   28.8124   10.0050 C   0  0  0  0  0  0  0  0  0  0  0  0
   -0.7741   30.5197    8.3953 C   0  0  0  0  0  0  0  0  0  0  0  0
    0.6634   28.1516    8.5727 C   0  0  0  0  0  0  0  0  0  0  0  0
    3.6988   27.4856    7.0801 C   0  0  0  0  0  0  0  0  0  0  0  0
   -4.7482   30.3965   11.3144 C   0  0  0  0  0  0  0  0  0  0  0  0
    2.2226   29.4257    6.9248 C   0  0  0  0  0  0  0  0  0  0  0  0
    0.4012   30.3653    7.6626 C   0  0  0  0  0  0  0  0  0  0  0  0
   -0.8685   27.2198   10.1664 C   0  0  0  0  0  0  0  0  0  0  0  0
   -2.4379   29.7555    9.9028 C   0  0  0  0  0  0  0  0  0  0  0  0
    1.1303   29.1867    7.7562 C   0  0  0  0  0  0  0  0  0  0  0  0
   -1.2512   29.4956    9.2206 C   0  0  0  0  0  0  0  0  0  0  0  0
   -0.5203   28.2830    9.3139 C   0  0  0  0  0  0  0  0  0  0  0  0
   -6.6062   30.0565   12.1082 H   0  0  0  0  0  0  0  0  0  0  0  0
    0.7600   32.1120    6.6093 H   0  0  0  0  0  0  0  0  0  0  0  0
    3.9120   29.0914    5.9514 H   0  0  0  0  0  0  0  0  0  0  0  0
    5.9237   25.4707    3.6277 H   0  0  0  0  0  0  0  0  0  0  0  0
    6.8996   26.2788    4.6578 H   0  0  0  0  0  0  0  0  0  0  0  0
    6.1285   24.9277    5.1540 H   0  0  0  0  0  0  0  0  0  0  0  0
    4.0349   26.0497    4.9558 H   0  0  0  0  0  0  0  0  0  0  0  0
    4.8061   27.4009    4.4595 H   0  0  0  0  0  0  0  0  0  0  0  0
   -1.7371   24.3638   12.5464 H   0  0  0  0  0  0  0  0  0  0  0  0
   -1.7231   23.9806   10.1751 H   0  0  0  0  0  0  0  0  0  0  0  0
   -1.1787   26.5311   13.4156 H   0  0  0  0  0  0  0  0  0  0  0  0
    5.6878   27.7879    6.5358 H   0  0  0  0  0  0  0  0  0  0  0  0
    5.3852   26.2618    7.0321 H   0  0  0  0  0  0  0  0  0  0  0  0
   -3.8383   32.2479   11.5936 H   0  0  0  0  0  0  0  0  0  0  0  0
   -5.3210   28.4424   10.8803 H   0  0  0  0  0  0  0  0  0  0  0  0
   -1.1456   25.7758    8.6815 H   0  0  0  0  0  0  0  0  0  0  0  0
   -0.6266   28.3196   11.9270 H   0  0  0  0  0  0  0  0  0  0  0  0
   -1.8898   31.7221   10.3169 H   0  0  0  0  0  0  0  0  0  0  0  0
   -3.3879   27.9248    9.5509 H   0  0  0  0  0  0  0  0  0  0  0  0
   -1.2850   31.3769    8.3302 H   0  0  0  0  0  0  0  0  0  0  0  0
    1.1844   27.2999    8.6293 H   0  0  0  0  0  0  0  0  0  0  0  0
  1 20  2  0  0  0  0
  2 21  1  0  0  0  0
  3  4  1  0  0  0  0
  3 22  2  0  0  0  0
  4 23  1  0  0  0  0
  5 20  1  0  0  0  0
  5 22  1  0  0  0  0
  6  7  1  0  0  0  0
  7 11  1  0  0  0  0
  8  9  2  0  0  0  0
  8 10  1  0  0  0  0
  9 14  1  0  0  0  0
 10 15  2  0  0  0  0
 11 20  1  0  0  0  0
 12 16  1  0  0  0  0
 12 21  2  0  0  0  0
 13 17  2  0  0  0  0
 13 21  1  0  0  0  0
 14 24  2  0  0  0  0
 15 24  1  0  0  0  0
 16 25  2  0  0  0  0
 17 25  1  0  0  0  0
 18 23  2  0  0  0  0
 18 27  1  0  0  0  0
 19 26  2  0  0  0  0
 19 28  1  0  0  0  0
 22 26  1  0  0  0  0
 23 26  1  0  0  0  0
 24 28  1  0  0  0  0
 25 27  1  0  0  0  0
 27 28  2  0  0  0  0
  2 29  1  0  0  0  0
  4 30  1  0  0  0  0
  5 31  1  0  0  0  0
  6 32  1  0  0  0  0
  6 33  1  0  0  0  0
  6 34  1  0  0  0  0
  7 35  1  0  0  0  0
  7 36  1  0  0  0  0
  8 37  1  0  0  0  0
  9 38  1  0  0  0  0
 10 39  1  0  0  0  0
 11 40  1  0  0  0  0
 11 41  1  0  0  0  0
 12 42  1  0  0  0  0
 13 43  1  0  0  0  0
 14 44  1  0  0  0  0
 15 45  1  0  0  0  0
 16 46  1  0  0  0  0
 17 47  1  0  0  0  0
 18 48  1  0  0  0  0
 19 49  1  0  0  0  0
M  END
$$$$
