A28_A_299
          05071912473D 1   1.00000     0.00000     0
            
 38 40  0  0  0  0            999 V2000
   -1.7460   31.7493    8.5361 F   0  0  0  0  0  0  0  0  0  0  0  0
   -2.5588   29.8675   10.2886 F   0  0  0  0  0  0  0  0  0  0  0  0
    1.7523   26.4213    6.8562 O   0  0  0  0  0  0  0  0  0  0  0  0
    1.6010   30.5201    6.3720 N   0  0  0  0  0  0  0  0  0  0  0  0
    0.6605   31.1307    6.8930 N   0  0  0  0  0  0  0  0  0  0  0  0
    2.7236   28.4798    6.5841 N   0  0  0  0  0  0  0  0  0  0  0  0
    5.9565   25.1780    7.1734 C   0  0  0  0  0  0  0  0  0  0  0  0
    4.9485   26.3006    7.4143 C   0  0  0  0  0  0  0  0  0  0  0  0
   -1.8942   25.5894   12.5795 C   0  0  0  0  0  0  0  0  0  0  0  0
   -2.8812   26.1119   11.7426 C   0  0  0  0  0  0  0  0  0  0  0  0
   -0.5684   25.9900   12.4115 C   0  0  0  0  0  0  0  0  0  0  0  0
    4.0505   26.4864    6.1922 C   0  0  0  0  0  0  0  0  0  0  0  0
   -2.5455   27.0280   10.7407 C   0  0  0  0  0  0  0  0  0  0  0  0
   -0.2397   26.9133   11.4154 C   0  0  0  0  0  0  0  0  0  0  0  0
    0.2887   28.1518    8.7539 C   0  0  0  0  0  0  0  0  0  0  0  0
    2.7147   27.1347    6.5853 C   0  0  0  0  0  0  0  0  0  0  0  0
    1.6967   29.2919    6.8794 C   0  0  0  0  0  0  0  0  0  0  0  0
   -1.0789   30.5818    8.6006 C   0  0  0  0  0  0  0  0  0  0  0  0
   -1.5057   29.5941    9.4961 C   0  0  0  0  0  0  0  0  0  0  0  0
    0.0119   30.3499    7.7641 C   0  0  0  0  0  0  0  0  0  0  0  0
   -1.2125   27.4205   10.5508 C   0  0  0  0  0  0  0  0  0  0  0  0
    0.6849   29.1323    7.8252 C   0  0  0  0  0  0  0  0  0  0  0  0
   -0.8399   28.3597    9.5711 C   0  0  0  0  0  0  0  0  0  0  0  0
    0.4178   32.0795    6.6907 H   0  0  0  0  0  0  0  0  0  0  0  0
    3.5863   28.9211    6.3372 H   0  0  0  0  0  0  0  0  0  0  0  0
    6.5350   25.0703    7.9819 H   0  0  0  0  0  0  0  0  0  0  0  0
    5.4679   24.3235    6.9969 H   0  0  0  0  0  0  0  0  0  0  0  0
    6.5263   25.4054    6.3837 H   0  0  0  0  0  0  0  0  0  0  0  0
    5.4412   27.1522    7.5929 H   0  0  0  0  0  0  0  0  0  0  0  0
    4.3829   26.0703    8.2061 H   0  0  0  0  0  0  0  0  0  0  0  0
   -2.1354   24.9328   13.2941 H   0  0  0  0  0  0  0  0  0  0  0  0
   -3.8334   25.8297   11.8599 H   0  0  0  0  0  0  0  0  0  0  0  0
    0.1461   25.6168   13.0033 H   0  0  0  0  0  0  0  0  0  0  0  0
    3.8717   25.5936    5.7788 H   0  0  0  0  0  0  0  0  0  0  0  0
    4.5165   27.0731    5.5299 H   0  0  0  0  0  0  0  0  0  0  0  0
   -3.2620   27.4065   10.1547 H   0  0  0  0  0  0  0  0  0  0  0  0
    0.7085   27.2162   11.3199 H   0  0  0  0  0  0  0  0  0  0  0  0
    0.8112   27.3029    8.8341 H   0  0  0  0  0  0  0  0  0  0  0  0
  1 18  1  0  0  0  0
  2 19  1  0  0  0  0
  3 16  2  0  0  0  0
  4  5  1  0  0  0  0
  4 17  2  0  0  0  0
  5 20  1  0  0  0  0
  6 16  1  0  0  0  0
  6 17  1  0  0  0  0
  7  8  1  0  0  0  0
  8 12  1  0  0  0  0
  9 10  2  0  0  0  0
  9 11  1  0  0  0  0
 10 13  1  0  0  0  0
 11 14  2  0  0  0  0
 12 16  1  0  0  0  0
 13 21  2  0  0  0  0
 14 21  1  0  0  0  0
 15 22  2  0  0  0  0
 15 23  1  0  0  0  0
 17 22  1  0  0  0  0
 18 19  1  0  0  0  0
 18 20  2  0  0  0  0
 19 23  2  0  0  0  0
 20 22  1  0  0  0  0
 21 23  1  0  0  0  0
  5 24  1  0  0  0  0
  6 25  1  0  0  0  0
  7 26  1  0  0  0  0
  7 27  1  0  0  0  0
  7 28  1  0  0  0  0
  8 29  1  0  0  0  0
  8 30  1  0  0  0  0
  9 31  1  0  0  0  0
 10 32  1  0  0  0  0
 11 33  1  0  0  0  0
 12 34  1  0  0  0  0
 12 35  1  0  0  0  0
 13 36  1  0  0  0  0
 14 37  1  0  0  0  0
 15 38  1  0  0  0  0
M  END
$$$$
