NS9_A_0
          05071912473D 1   1.00000     0.00000     0
            
 55 57  0  0  0  0            999 V2000
   -1.5605   27.9664   11.0926 O   0  0  0  0  0  0  0  0  0  0  0  0
    0.0988   23.0543   10.1142 O   0  0  0  0  0  0  0  0  0  0  0  0
   -2.4370   25.3756   11.8015 O   0  0  0  0  0  0  0  0  0  0  0  0
    1.7295   30.1930    6.8837 N   0  0  0  0  0  0  0  0  0  0  0  0
    3.7604   28.2130    6.9688 N   0  0  0  0  0  0  0  0  0  0  0  0
   -0.0567   27.7927    8.7607 N   0  0  0  0  0  0  0  0  0  0  0  0
    0.5805   25.6410    9.5518 N   0  0  0  0  0  0  0  0  0  0  0  0
    1.6147   29.0472    7.4119 N   0  0  0  0  0  0  0  0  0  0  0  0
   -1.7274   30.8545    9.6318 C   0  0  0  0  0  0  0  0  0  0  0  0
   -2.7912   29.4437    7.8468 C   0  0  0  0  0  0  0  0  0  0  0  0
   -0.7052   27.1905   11.8830 C   0  0  0  0  0  0  0  0  0  0  0  0
   -1.0911   23.8322    9.8277 C   0  0  0  0  0  0  0  0  0  0  0  0
    0.5787   30.8631    7.0229 C   0  0  0  0  0  0  0  0  0  0  0  0
    4.8983   27.2640    7.2026 C   0  0  0  0  0  0  0  0  0  0  0  0
    4.8240   24.2447    4.1274 C   0  0  0  0  0  0  0  0  0  0  0  0
    4.8806   25.6120    3.7854 C   0  0  0  0  0  0  0  0  0  0  0  0
    4.8097   23.9031    5.4579 C   0  0  0  0  0  0  0  0  0  0  0  0
    4.9042   26.5662    4.7959 C   0  0  0  0  0  0  0  0  0  0  0  0
    4.8219   24.8439    6.4961 C   0  0  0  0  0  0  0  0  0  0  0  0
    2.1785   26.8859    8.2805 C   0  0  0  0  0  0  0  0  0  0  0  0
    0.8548   26.7614    8.8503 C   0  0  0  0  0  0  0  0  0  0  0  0
    2.5415   28.0308    7.5360 C   0  0  0  0  0  0  0  0  0  0  0  0
    0.3321   28.9006    8.0433 C   0  0  0  0  0  0  0  0  0  0  0  0
   -1.0325   25.7024   11.4914 C   0  0  2  0  0  0  0  0  0  0  0  0
   -0.8197   25.3596   10.0315 C   0  0  1  0  0  0  0  0  0  0  0  0
   -1.6877   30.5302    8.1149 C   0  0  0  0  0  0  0  0  0  0  0  0
    4.8711   26.1832    6.1427 C   0  0  0  0  0  0  0  0  0  0  0  0
   -0.2930   30.1106    7.7198 C   0  0  0  0  0  0  0  0  0  0  0  0
   -1.4082   28.9351   11.2886 H   0  0  0  0  0  0  0  0  0  0  0  0
   -0.0969   22.0832    9.9778 H   0  0  0  0  0  0  0  0  0  0  0  0
   -2.6229   24.4270   11.5452 H   0  0  0  0  0  0  0  0  0  0  0  0
    3.9049   29.0052    6.3759 H   0  0  0  0  0  0  0  0  0  0  0  0
    1.3135   24.9918    9.7548 H   0  0  0  0  0  0  0  0  0  0  0  0
   -1.0361   31.5455    9.8431 H   0  0  0  0  0  0  0  0  0  0  0  0
   -2.6325   31.2034    9.8745 H   0  0  0  0  0  0  0  0  0  0  0  0
   -1.5391   30.0236   10.1554 H   0  0  0  0  0  0  0  0  0  0  0  0
   -2.7970   29.2071    6.8752 H   0  0  0  0  0  0  0  0  0  0  0  0
   -2.5927   28.6264    8.3877 H   0  0  0  0  0  0  0  0  0  0  0  0
   -3.6862   29.8062    8.1069 H   0  0  0  0  0  0  0  0  0  0  0  0
   -0.8853   27.3466   12.8542 H   0  0  0  0  0  0  0  0  0  0  0  0
    0.2507   27.4051   11.6824 H   0  0  0  0  0  0  0  0  0  0  0  0
   -1.8261   23.5451   10.4419 H   0  0  0  0  0  0  0  0  0  0  0  0
   -1.3670   23.6720    8.8799 H   0  0  0  0  0  0  0  0  0  0  0  0
    0.3956   31.7788    6.6652 H   0  0  0  0  0  0  0  0  0  0  0  0
    4.8062   26.8477    8.1071 H   0  0  0  0  0  0  0  0  0  0  0  0
    5.7644   27.7612    7.1510 H   0  0  0  0  0  0  0  0  0  0  0  0
    4.7950   23.5405    3.4179 H   0  0  0  0  0  0  0  0  0  0  0  0
    4.9034   25.8920    2.8257 H   0  0  0  0  0  0  0  0  0  0  0  0
    4.7894   22.9325    5.6979 H   0  0  0  0  0  0  0  0  0  0  0  0
    4.9454   27.5368    4.5587 H   0  0  0  0  0  0  0  0  0  0  0  0
    4.7963   24.5602    7.4546 H   0  0  0  0  0  0  0  0  0  0  0  0
    2.8451   26.1526    8.4151 H   0  0  0  0  0  0  0  0  0  0  0  0
   -0.4477   25.1031   12.0381 H   0  0  0  0  0  0  0  0  0  0  0  0
   -1.4661   25.8827    9.4761 H   0  0  0  0  0  0  0  0  0  0  0  0
   -1.9265   31.3577    7.6067 H   0  0  0  0  0  0  0  0  0  0  0  0
  1 11  1  0  0  0  0
  2 12  1  0  0  0  0
  3 24  1  0  0  0  0
  4  8  1  0  0  0  0
  4 13  2  0  0  0  0
  5 14  1  0  0  0  0
  5 22  1  0  0  0  0
  6 21  2  0  0  0  0
  6 23  1  0  0  0  0
  7 21  1  0  0  0  0
  7 25  1  0  0  0  0
  8 22  1  0  0  0  0
  8 23  1  0  0  0  0
  9 26  1  0  0  0  0
 10 26  1  0  0  0  0
 11 24  1  0  0  0  0
 12 25  1  0  0  0  0
 13 28  1  0  0  0  0
 14 27  1  0  0  0  0
 15 16  2  0  0  0  0
 15 17  1  0  0  0  0
 16 18  1  0  0  0  0
 17 19  2  0  0  0  0
 18 27  2  0  0  0  0
 19 27  1  0  0  0  0
 20 21  1  0  0  0  0
 20 22  2  0  0  0  0
 23 28  2  0  0  0  0
 24 25  1  0  0  0  0
 26 28  1  0  0  0  0
  1 29  1  0  0  0  0
  2 30  1  0  0  0  0
  3 31  1  0  0  0  0
  5 32  1  0  0  0  0
  7 33  1  0  0  0  0
  9 34  1  0  0  0  0
  9 35  1  0  0  0  0
  9 36  1  0  0  0  0
 10 37  1  0  0  0  0
 10 38  1  0  0  0  0
 10 39  1  0  0  0  0
 11 40  1  0  0  0  0
 11 41  1  0  0  0  0
 12 42  1  0  0  0  0
 12 43  1  0  0  0  0
 13 44  1  0  0  0  0
 14 45  1  0  0  0  0
 14 46  1  0  0  0  0
 15 47  1  0  0  0  0
 16 48  1  0  0  0  0
 17 49  1  0  0  0  0
 18 50  1  0  0  0  0
 19 51  1  0  0  0  0
 20 52  1  0  0  0  0
 24 53  1  0  0  0  0
 25 54  1  0  0  0  0
 26 55  1  0  0  0  0
M  END
$$$$
