404_A_299
          05071912473D 1   1.00000     0.00000     0
            
 52 54  0  0  0  0            999 V2000
   -1.5134   27.8375   11.1233 O   0  0  0  0  0  0  0  0  0  0  0  0
    1.5810   30.3698    6.6215 N   0  0  0  0  0  0  0  0  0  0  0  0
    0.4105   31.1082    6.8877 N   0  0  0  0  0  0  0  0  0  0  0  0
    3.6689   28.0178    6.7791 N   0  0  0  0  0  0  0  0  0  0  0  0
    2.1035   27.0573    8.2567 N   0  0  0  0  0  0  0  0  0  0  0  0
    0.7183   25.9547    9.7227 N   0  0  0  0  0  0  0  0  0  0  0  0
    0.0163   28.0849    8.8804 N   0  0  0  0  0  0  0  0  0  0  0  0
   -1.3794   24.2302    9.5091 C   0  0  0  0  0  0  0  0  0  0  0  0
   -1.6080   30.9454    9.8414 C   0  0  0  0  0  0  0  0  0  0  0  0
   -2.7665   29.7269    7.9506 C   0  0  0  0  0  0  0  0  0  0  0  0
   -0.2881   27.2476   11.5736 C   0  0  0  0  0  0  0  0  0  0  0  0
    4.6556   26.9871    7.0706 C   0  0  0  0  0  0  0  0  0  0  0  0
    4.7578   24.0784    3.9198 C   0  0  0  0  0  0  0  0  0  0  0  0
    4.4146   23.6934    5.2096 C   0  0  0  0  0  0  0  0  0  0  0  0
    5.0703   25.4021    3.6432 C   0  0  0  0  0  0  0  0  0  0  0  0
   -1.5155   25.3665   10.4958 C   0  0  0  0  0  0  0  0  0  0  0  0
    4.3837   24.6372    6.2266 C   0  0  0  0  0  0  0  0  0  0  0  0
    5.0343   26.3439    4.6611 C   0  0  0  0  0  0  0  0  0  0  0  0
    0.9285   27.0585    8.9590 C   0  0  0  0  0  0  0  0  0  0  0  0
    2.4936   28.0605    7.4488 C   0  0  0  0  0  0  0  0  0  0  0  0
   -0.1406   25.8916   10.8935 C   0  0  1  0  0  0  0  0  0  0  0  0
   -1.7066   30.7664    8.3221 C   0  0  0  0  0  0  0  0  0  0  0  0
    4.6959   25.9630    5.9559 C   0  0  0  0  0  0  0  0  0  0  0  0
    1.5710   29.2111    7.3141 C   0  0  0  0  0  0  0  0  0  0  0  0
   -0.3751   30.4295    7.7411 C   0  0  0  0  0  0  0  0  0  0  0  0
    0.3156   29.1522    8.0743 C   0  0  0  0  0  0  0  0  0  0  0  0
   -1.6325   28.7306   11.5571 H   0  0  0  0  0  0  0  0  0  0  0  0
    2.3140   30.6624    6.0074 H   0  0  0  0  0  0  0  0  0  0  0  0
    3.8621   28.7020    6.0759 H   0  0  0  0  0  0  0  0  0  0  0  0
    1.1939   25.1160    9.4572 H   0  0  0  0  0  0  0  0  0  0  0  0
   -2.2880   23.8965    9.2577 H   0  0  0  0  0  0  0  0  0  0  0  0
   -0.9052   24.5544    8.6906 H   0  0  0  0  0  0  0  0  0  0  0  0
   -0.8551   23.4877    9.9260 H   0  0  0  0  0  0  0  0  0  0  0  0
   -0.9091   31.6289   10.0518 H   0  0  0  0  0  0  0  0  0  0  0  0
   -2.4907   31.2501   10.1992 H   0  0  0  0  0  0  0  0  0  0  0  0
   -1.3599   30.0738   10.2643 H   0  0  0  0  0  0  0  0  0  0  0  0
   -2.8070   29.6329    6.9559 H   0  0  0  0  0  0  0  0  0  0  0  0
   -2.5272   28.8461    8.3592 H   0  0  0  0  0  0  0  0  0  0  0  0
   -3.6580   30.0224    8.2940 H   0  0  0  0  0  0  0  0  0  0  0  0
   -0.3134   27.1285   12.5661 H   0  0  0  0  0  0  0  0  0  0  0  0
    0.4822   27.8361   11.3280 H   0  0  0  0  0  0  0  0  0  0  0  0
    4.4131   26.5319    7.9273 H   0  0  0  0  0  0  0  0  0  0  0  0
    5.5570   27.4104    7.1616 H   0  0  0  0  0  0  0  0  0  0  0  0
    4.7799   23.3984    3.1870 H   0  0  0  0  0  0  0  0  0  0  0  0
    4.1904   22.7387    5.4048 H   0  0  0  0  0  0  0  0  0  0  0  0
    5.3202   25.6757    2.7144 H   0  0  0  0  0  0  0  0  0  0  0  0
   -1.9920   25.0392   11.3117 H   0  0  0  0  0  0  0  0  0  0  0  0
   -2.0421   26.1060   10.0763 H   0  0  0  0  0  0  0  0  0  0  0  0
    4.1363   24.3622    7.1556 H   0  0  0  0  0  0  0  0  0  0  0  0
    5.2523   27.2996    4.4636 H   0  0  0  0  0  0  0  0  0  0  0  0
    0.2641   25.2528   11.5478 H   0  0  0  0  0  0  0  0  0  0  0  0
   -1.9930   31.6419    7.9330 H   0  0  0  0  0  0  0  0  0  0  0  0
  1 11  1  0  0  0  0
  2  3  1  0  0  0  0
  2 24  1  0  0  0  0
  3 25  2  0  0  0  0
  4 12  1  0  0  0  0
  4 20  1  0  0  0  0
  5 19  2  0  0  0  0
  5 20  1  0  0  0  0
  6 19  1  0  0  0  0
  6 21  1  0  0  0  0
  7 19  1  0  0  0  0
  7 26  2  0  0  0  0
  8 16  1  0  0  0  0
  9 22  1  0  0  0  0
 10 22  1  0  0  0  0
 11 21  1  0  0  0  0
 12 23  1  0  0  0  0
 13 14  2  0  0  0  0
 13 15  1  0  0  0  0
 14 17  1  0  0  0  0
 15 18  2  0  0  0  0
 16 21  1  0  0  0  0
 17 23  2  0  0  0  0
 18 23  1  0  0  0  0
 20 24  2  0  0  0  0
 22 25  1  0  0  0  0
 24 26  1  0  0  0  0
 25 26  1  0  0  0  0
  1 27  1  0  0  0  0
  2 28  1  0  0  0  0
  4 29  1  0  0  0  0
  6 30  1  0  0  0  0
  8 31  1  0  0  0  0
  8 32  1  0  0  0  0
  8 33  1  0  0  0  0
  9 34  1  0  0  0  0
  9 35  1  0  0  0  0
  9 36  1  0  0  0  0
 10 37  1  0  0  0  0
 10 38  1  0  0  0  0
 10 39  1  0  0  0  0
 11 40  1  0  0  0  0
 11 41  1  0  0  0  0
 12 42  1  0  0  0  0
 12 43  1  0  0  0  0
 13 44  1  0  0  0  0
 14 45  1  0  0  0  0
 15 46  1  0  0  0  0
 16 47  1  0  0  0  0
 16 48  1  0  0  0  0
 17 49  1  0  0  0  0
 18 50  1  0  0  0  0
 21 51  1  0  0  0  0
 22 52  1  0  0  0  0
M  END
$$$$
