X01_A_300
          05071912473D 1   1.00000     0.00000     0
            
 23 24  0  0  0  0            999 V2000
    2.0261   30.4478    6.4714 O   0  0  0  0  0  0  0  0  0  0  0  0
   -3.2191   29.3049   10.4843 N   0  0  0  0  0  0  0  0  0  0  0  0
    4.6834   27.3589    6.0298 N   0  0  0  0  0  0  0  0  0  0  0  0
    3.6409   25.9644    7.4251 N   0  0  0  0  0  0  0  0  0  0  0  0
    1.5936   26.7354    8.4379 N   0  0  0  0  0  0  0  0  0  0  0  0
    2.8035   28.1571    6.9134 N   0  0  0  0  0  0  0  0  0  0  0  0
    2.5661   25.8153    8.2270 C   0  0  0  0  0  0  0  0  0  0  0  0
   -2.3137   29.4752    9.7776 C   0  0  0  0  0  0  0  0  0  0  0  0
   -0.0126   31.1892    7.5011 C   0  0  0  0  0  0  0  0  0  0  0  0
   -1.1273   30.9462    8.3474 C   0  0  0  0  0  0  0  0  0  0  0  0
   -0.3117   28.6609    8.7833 C   0  0  0  0  0  0  0  0  0  0  0  0
    3.6952   27.1575    6.7988 C   0  0  0  0  0  0  0  0  0  0  0  0
    0.9625   30.1800    7.2847 C   0  0  0  0  0  0  0  0  0  0  0  0
    1.7646   27.8970    7.7498 C   0  0  0  0  0  0  0  0  0  0  0  0
   -1.2784   29.6850    8.9879 C   0  0  0  0  0  0  0  0  0  0  0  0
    0.8236   28.8901    7.9302 C   0  0  0  0  0  0  0  0  0  0  0  0
    2.7208   29.7469    6.3096 H   0  0  0  0  0  0  0  0  0  0  0  0
    4.7688   28.2280    5.5425 H   0  0  0  0  0  0  0  0  0  0  0  0
    5.3773   26.6487    5.9108 H   0  0  0  0  0  0  0  0  0  0  0  0
    2.4789   24.9445    8.7108 H   0  0  0  0  0  0  0  0  0  0  0  0
    0.0862   32.0782    7.0541 H   0  0  0  0  0  0  0  0  0  0  0  0
   -1.8081   31.6640    8.4934 H   0  0  0  0  0  0  0  0  0  0  0  0
   -0.4224   27.7760    9.2356 H   0  0  0  0  0  0  0  0  0  0  0  0
  1 13  1  0  0  0  0
  2  8  3  0  0  0  0
  3 12  1  0  0  0  0
  4  7  2  0  0  0  0
  4 12  1  0  0  0  0
  5  7  1  0  0  0  0
  5 14  2  0  0  0  0
  6 12  2  0  0  0  0
  6 14  1  0  0  0  0
  8 15  1  0  0  0  0
  9 10  1  0  0  0  0
  9 13  2  0  0  0  0
 10 15  2  0  0  0  0
 11 15  1  0  0  0  0
 11 16  2  0  0  0  0
 13 16  1  0  0  0  0
 14 16  1  0  0  0  0
  1 17  1  0  0  0  0
  3 18  1  0  0  0  0
  3 19  1  0  0  0  0
  7 20  1  0  0  0  0
  9 21  1  0  0  0  0
 10 22  1  0  0  0  0
 11 23  1  0  0  0  0
M  END
$$$$
