X02_A_497
          05071912473D 1   1.00000     0.00000     0
            
 31 32  0  0  0  0            999 V2000
    0.9682   28.2042    7.6727 S   0  0  0  0  0  0  0  0  0  0  0  0
   -1.5090   30.9712    9.1363 O   0  0  0  0  0  0  0  0  0  0  0  0
    0.3107   32.0415    7.3467 N   0  0  0  0  0  0  0  0  0  0  0  0
    3.0545   28.4558    5.8717 N   0  0  0  0  0  0  0  0  0  0  0  0
    1.8037   30.2904    6.4935 N   0  0  0  0  0  0  0  0  0  0  0  0
    4.6237   26.7783    7.9240 C   0  0  0  0  0  0  0  0  0  0  0  0
    3.0638   26.9726    5.9760 C   0  0  0  0  0  0  0  0  0  0  0  0
    4.3465   26.5210    6.6355 C   0  0  0  0  0  0  0  0  0  0  0  0
   -2.5822   26.4830   11.2382 C   0  0  0  0  0  0  0  0  0  0  0  0
   -1.1829   26.7379   11.2380 C   0  0  0  0  0  0  0  0  0  0  0  0
   -3.4602   27.3278   10.4954 C   0  0  0  0  0  0  0  0  0  0  0  0
   -0.6587   27.8374   10.4943 C   0  0  0  0  0  0  0  0  0  0  0  0
   -2.9399   28.4285    9.7505 C   0  0  0  0  0  0  0  0  0  0  0  0
    2.0663   29.0580    6.5574 C   0  0  0  0  0  0  0  0  0  0  0  0
    0.1551   29.7705    8.0016 C   0  0  0  0  0  0  0  0  0  0  0  0
    0.7046   30.7777    7.3015 C   0  0  0  0  0  0  0  0  0  0  0  0
   -0.9871   29.8735    8.9559 C   0  0  0  0  0  0  0  0  0  0  0  0
   -1.5370   28.6880    9.7424 C   0  0  0  0  0  0  0  0  0  0  0  0
   -0.4582   32.3050    7.9293 H   0  0  0  0  0  0  0  0  0  0  0  0
    0.7821   32.7321    6.7982 H   0  0  0  0  0  0  0  0  0  0  0  0
    3.7281   28.9643    5.3354 H   0  0  0  0  0  0  0  0  0  0  0  0
    5.4843   26.4619    8.3230 H   0  0  0  0  0  0  0  0  0  0  0  0
    3.9696   27.2864    8.4844 H   0  0  0  0  0  0  0  0  0  0  0  0
    3.0014   26.5739    5.0610 H   0  0  0  0  0  0  0  0  0  0  0  0
    2.2835   26.6722    6.5244 H   0  0  0  0  0  0  0  0  0  0  0  0
    5.0136   26.0116    6.0920 H   0  0  0  0  0  0  0  0  0  0  0  0
   -2.9504   25.7124   11.7583 H   0  0  0  0  0  0  0  0  0  0  0  0
   -0.5668   26.1470   11.7587 H   0  0  0  0  0  0  0  0  0  0  0  0
   -4.4439   27.1480   10.4969 H   0  0  0  0  0  0  0  0  0  0  0  0
    0.3252   28.0162   10.4971 H   0  0  0  0  0  0  0  0  0  0  0  0
   -3.5597   29.0187    9.2333 H   0  0  0  0  0  0  0  0  0  0  0  0
  1 14  1  0  0  0  0
  1 15  1  0  0  0  0
  2 17  2  0  0  0  0
  3 16  1  0  0  0  0
  4  7  1  0  0  0  0
  4 14  1  0  0  0  0
  5 14  2  0  0  0  0
  5 16  1  0  0  0  0
  6  8  2  0  0  0  0
  7  8  1  0  0  0  0
  9 10  2  0  0  0  0
  9 11  1  0  0  0  0
 10 12  1  0  0  0  0
 11 13  2  0  0  0  0
 12 18  2  0  0  0  0
 13 18  1  0  0  0  0
 15 16  2  0  0  0  0
 15 17  1  0  0  0  0
 17 18  1  0  0  0  0
  3 19  1  0  0  0  0
  3 20  1  0  0  0  0
  4 21  1  0  0  0  0
  6 22  1  0  0  0  0
  6 23  1  0  0  0  0
  7 24  1  0  0  0  0
  7 25  1  0  0  0  0
  8 26  1  0  0  0  0
  9 27  1  0  0  0  0
 10 28  1  0  0  0  0
 11 29  1  0  0  0  0
 12 30  1  0  0  0  0
 13 31  1  0  0  0  0
M  END
$$$$
