X03_A_299
          05071912473D 1   1.00000     0.00000     0
            
 40 41  0  0  0  0            999 V2000
    2.7195   26.7727    6.9544 O   0  0  0  0  0  0  0  0  0  0  0  0
    4.8485   27.0224    5.2729 N   0  0  0  0  0  0  0  0  0  0  0  0
    3.9388   28.0829    5.5987 N   0  0  0  0  0  0  0  0  0  0  0  0
    1.0079   31.0476    6.8100 N   0  0  0  0  0  0  0  0  0  0  0  0
    2.0736   30.2664    6.2775 N   0  0  0  0  0  0  0  0  0  0  0  0
   -1.1294   28.1760   12.6599 C   0  0  0  0  0  0  0  0  0  0  0  0
   -0.9306   25.5915    9.7690 C   0  0  0  0  0  0  0  0  0  0  0  0
   -2.8550   26.9887   10.5949 C   0  0  0  0  0  0  0  0  0  0  0  0
   -0.7398   26.8893   12.0366 C   0  0  0  0  0  0  0  0  0  0  0  0
   -1.0358   30.5980    8.4163 C   0  0  0  0  0  0  0  0  0  0  0  0
   -1.6949   29.3799    9.2221 C   0  0  0  0  0  0  0  0  0  0  0  0
    0.1843   27.7980    8.4233 C   0  0  0  0  0  0  0  0  0  0  0  0
    2.9023   27.8896    6.4399 C   0  0  0  0  0  0  0  0  0  0  0  0
    0.2452   30.2335    7.6147 C   0  0  0  0  0  0  0  0  0  0  0  0
    1.9849   29.0109    6.7450 C   0  0  0  0  0  0  0  0  0  0  0  0
    0.7933   28.9681    7.6198 C   0  0  0  0  0  0  0  0  0  0  0  0
   -0.6576   28.2379    9.7158 C   0  0  2  0  0  0  0  0  0  0  0  0
   -1.2957   26.9317   10.5168 C   0  0  0  0  0  0  0  0  0  0  0  0
    5.5431   27.3620    4.6387 H   0  0  0  0  0  0  0  0  0  0  0  0
    5.2909   26.6945    6.1075 H   0  0  0  0  0  0  0  0  0  0  0  0
    4.0765   28.9864    5.1928 H   0  0  0  0  0  0  0  0  0  0  0  0
    2.7785   30.6013    5.6523 H   0  0  0  0  0  0  0  0  0  0  0  0
   -0.8068   28.1992   13.6061 H   0  0  0  0  0  0  0  0  0  0  0  0
   -0.7191   28.9315   12.1492 H   0  0  0  0  0  0  0  0  0  0  0  0
   -2.1253   28.2656   12.6449 H   0  0  0  0  0  0  0  0  0  0  0  0
    0.0635   25.5112    9.6951 H   0  0  0  0  0  0  0  0  0  0  0  0
   -1.2904   24.8137   10.2842 H   0  0  0  0  0  0  0  0  0  0  0  0
   -1.3333   25.6001    8.8537 H   0  0  0  0  0  0  0  0  0  0  0  0
   -3.1348   27.8265   11.0638 H   0  0  0  0  0  0  0  0  0  0  0  0
   -3.2355   26.9814    9.6701 H   0  0  0  0  0  0  0  0  0  0  0  0
   -3.1926   26.1949   11.1006 H   0  0  0  0  0  0  0  0  0  0  0  0
   -1.1508   26.1254   12.5341 H   0  0  0  0  0  0  0  0  0  0  0  0
    0.2554   26.7913   12.0384 H   0  0  0  0  0  0  0  0  0  0  0  0
   -0.7983   31.3132    9.0736 H   0  0  0  0  0  0  0  0  0  0  0  0
   -1.7159   30.9491    7.7728 H   0  0  0  0  0  0  0  0  0  0  0  0
   -2.3723   28.9464    8.6279 H   0  0  0  0  0  0  0  0  0  0  0  0
   -2.1506   29.7539   10.0298 H   0  0  0  0  0  0  0  0  0  0  0  0
    0.9312   27.2055    8.7250 H   0  0  0  0  0  0  0  0  0  0  0  0
   -0.4228   27.2858    7.8157 H   0  0  0  0  0  0  0  0  0  0  0  0
   -0.0166   28.6792   10.3438 H   0  0  0  0  0  0  0  0  0  0  0  0
  1 13  2  0  0  0  0
  2  3  1  0  0  0  0
  3 13  1  0  0  0  0
  4  5  1  0  0  0  0
  4 14  2  0  0  0  0
  5 15  1  0  0  0  0
  6  9  1  0  0  0  0
  7 18  1  0  0  0  0
  8 18  1  0  0  0  0
  9 18  1  0  0  0  0
 10 11  1  0  0  0  0
 10 14  1  0  0  0  0
 11 17  1  0  0  0  0
 12 16  1  0  0  0  0
 12 17  1  0  0  0  0
 13 15  1  0  0  0  0
 14 16  1  0  0  0  0
 15 16  2  0  0  0  0
 17 18  1  0  0  0  0
  2 19  1  0  0  0  0
  2 20  1  0  0  0  0
  3 21  1  0  0  0  0
  5 22  1  0  0  0  0
  6 23  1  0  0  0  0
  6 24  1  0  0  0  0
  6 25  1  0  0  0  0
  7 26  1  0  0  0  0
  7 27  1  0  0  0  0
  7 28  1  0  0  0  0
  8 29  1  0  0  0  0
  8 30  1  0  0  0  0
  8 31  1  0  0  0  0
  9 32  1  0  0  0  0
  9 33  1  0  0  0  0
 10 34  1  0  0  0  0
 10 35  1  0  0  0  0
 11 36  1  0  0  0  0
 11 37  1  0  0  0  0
 12 38  1  0  0  0  0
 12 39  1  0  0  0  0
 17 40  1  0  0  0  0
M  END
$$$$
