X35_A_476
          05071912473D 1   1.00000     0.00000     0
            
 32 33  0  0  0  0            999 V2000
    0.8529   28.0593    7.7875 S   0  0  0  0  0  0  0  0  0  0  0  0
   -1.6552   30.8052    9.2780 O   0  0  0  0  0  0  0  0  0  0  0  0
    0.1247   31.8611    7.4838 N   0  0  0  0  0  0  0  0  0  0  0  0
   -3.4626   27.1506   10.7084 N   0  0  0  0  0  0  0  0  0  0  0  0
    2.8805   28.4025    6.0008 N   0  0  0  0  0  0  0  0  0  0  0  0
    1.5919   30.2523    6.6324 N   0  0  0  0  0  0  0  0  0  0  0  0
    4.6886   26.7501    8.2333 C   0  0  0  0  0  0  0  0  0  0  0  0
   -2.6097   26.2916   11.3899 C   0  0  0  0  0  0  0  0  0  0  0  0
    3.1986   26.9843    6.1281 C   0  0  0  0  0  0  0  0  0  0  0  0
   -3.0029   28.2212    9.9521 C   0  0  0  0  0  0  0  0  0  0  0  0
    4.5370   26.8000    6.7803 C   0  0  0  0  0  0  0  0  0  0  0  0
   -1.2157   26.4949   11.3347 C   0  0  0  0  0  0  0  0  0  0  0  0
   -0.7197   27.5899   10.5660 C   0  0  0  0  0  0  0  0  0  0  0  0
    1.8677   28.9458    6.7180 C   0  0  0  0  0  0  0  0  0  0  0  0
    0.0069   29.5258    8.1586 C   0  0  0  0  0  0  0  0  0  0  0  0
    0.5505   30.5912    7.4290 C   0  0  0  0  0  0  0  0  0  0  0  0
   -1.0548   29.6162    9.0609 C   0  0  0  0  0  0  0  0  0  0  0  0
   -1.6047   28.4657    9.8601 C   0  0  0  0  0  0  0  0  0  0  0  0
   -0.6448   32.1054    8.0739 H   0  0  0  0  0  0  0  0  0  0  0  0
    0.5765   32.5641    6.9346 H   0  0  0  0  0  0  0  0  0  0  0  0
    3.4136   28.9773    5.3801 H   0  0  0  0  0  0  0  0  0  0  0  0
    5.6532   26.6223    8.4636 H   0  0  0  0  0  0  0  0  0  0  0  0
    4.3613   27.6067    8.6322 H   0  0  0  0  0  0  0  0  0  0  0  0
    4.1548   25.9872    8.5982 H   0  0  0  0  0  0  0  0  0  0  0  0
   -2.9839   25.5300   11.9190 H   0  0  0  0  0  0  0  0  0  0  0  0
    3.2161   26.5685    5.2188 H   0  0  0  0  0  0  0  0  0  0  0  0
    2.4975   26.5389    6.6849 H   0  0  0  0  0  0  0  0  0  0  0  0
   -3.6504   28.8159    9.4756 H   0  0  0  0  0  0  0  0  0  0  0  0
    4.9027   25.9374    6.4307 H   0  0  0  0  0  0  0  0  0  0  0  0
    5.1091   27.5570    6.4647 H   0  0  0  0  0  0  0  0  0  0  0  0
   -0.5897   25.8865   11.8225 H   0  0  0  0  0  0  0  0  0  0  0  0
    0.2665   27.7487   10.5196 H   0  0  0  0  0  0  0  0  0  0  0  0
  1 14  1  0  0  0  0
  1 15  1  0  0  0  0
  2 17  2  0  0  0  0
  3 16  1  0  0  0  0
  4  8  2  0  0  0  0
  4 10  1  0  0  0  0
  5  9  1  0  0  0  0
  5 14  1  0  0  0  0
  6 14  2  0  0  0  0
  6 16  1  0  0  0  0
  7 11  1  0  0  0  0
  8 12  1  0  0  0  0
  9 11  1  0  0  0  0
 10 18  2  0  0  0  0
 12 13  2  0  0  0  0
 13 18  1  0  0  0  0
 15 16  2  0  0  0  0
 15 17  1  0  0  0  0
 17 18  1  0  0  0  0
  3 19  1  0  0  0  0
  3 20  1  0  0  0  0
  5 21  1  0  0  0  0
  7 22  1  0  0  0  0
  7 23  1  0  0  0  0
  7 24  1  0  0  0  0
  8 25  1  0  0  0  0
  9 26  1  0  0  0  0
  9 27  1  0  0  0  0
 10 28  1  0  0  0  0
 11 29  1  0  0  0  0
 11 30  1  0  0  0  0
 12 31  1  0  0  0  0
 13 32  1  0  0  0  0
M  END
$$$$
