X36_A_497
          05071912473D 1   1.00000     0.00000     0
            
 34 36  0  0  0  0            999 V2000
    1.1795   28.1658    8.0149 S   0  0  0  0  0  0  0  0  0  0  0  0
   -1.6433   30.7476    9.1733 O   0  0  0  0  0  0  0  0  0  0  0  0
    0.2414   31.8444    7.3914 N   0  0  0  0  0  0  0  0  0  0  0  0
    1.8493   30.2805    6.7580 N   0  0  0  0  0  0  0  0  0  0  0  0
    3.3293   28.5285    6.3272 N   0  0  0  0  0  0  0  0  0  0  0  0
    5.3881   24.7402    6.3853 C   0  0  0  0  0  0  0  0  0  0  0  0
   -2.4085   26.1963   11.5136 C   0  0  0  0  0  0  0  0  0  0  0  0
    5.8317   25.8392    5.5356 C   0  0  0  0  0  0  0  0  0  0  0  0
    4.2250   24.8857    7.2514 C   0  0  0  0  0  0  0  0  0  0  0  0
   -1.0324   26.5341   11.5034 C   0  0  0  0  0  0  0  0  0  0  0  0
   -3.3499   26.9719   10.7235 C   0  0  0  0  0  0  0  0  0  0  0  0
    5.1269   27.0993    5.5342 C   0  0  0  0  0  0  0  0  0  0  0  0
    3.5069   26.1410    7.2586 C   0  0  0  0  0  0  0  0  0  0  0  0
   -0.5205   27.6137   10.7381 C   0  0  0  0  0  0  0  0  0  0  0  0
   -2.8684   28.0869    9.9260 C   0  0  0  0  0  0  0  0  0  0  0  0
    2.2084   29.0171    6.9573 C   0  0  0  0  0  0  0  0  0  0  0  0
    0.2094   29.5583    8.2295 C   0  0  0  0  0  0  0  0  0  0  0  0
    0.7384   30.6046    7.4587 C   0  0  0  0  0  0  0  0  0  0  0  0
   -0.9324   29.6010    9.0710 C   0  0  0  0  0  0  0  0  0  0  0  0
    3.9437   27.2947    6.3872 C   0  0  0  0  0  0  0  0  0  0  0  0
   -1.4359   28.4391    9.9068 C   0  0  0  0  0  0  0  0  0  0  0  0
   -0.5798   32.0827    7.9098 H   0  0  0  0  0  0  0  0  0  0  0  0
    0.6911   32.5331    6.8226 H   0  0  0  0  0  0  0  0  0  0  0  0
    3.7778   29.1829    5.7184 H   0  0  0  0  0  0  0  0  0  0  0  0
    5.8890   23.8747    6.3735 H   0  0  0  0  0  0  0  0  0  0  0  0
   -2.7312   25.4259   12.0634 H   0  0  0  0  0  0  0  0  0  0  0  0
    6.6319   25.7189    4.9480 H   0  0  0  0  0  0  0  0  0  0  0  0
    3.9277   24.1281    7.8325 H   0  0  0  0  0  0  0  0  0  0  0  0
   -0.3991   25.9920   12.0556 H   0  0  0  0  0  0  0  0  0  0  0  0
   -4.3226   26.7397   10.7286 H   0  0  0  0  0  0  0  0  0  0  0  0
    5.4453   27.8451    4.9490 H   0  0  0  0  0  0  0  0  0  0  0  0
    2.7078   26.2470    7.8504 H   0  0  0  0  0  0  0  0  0  0  0  0
    0.4578   27.8198   10.7580 H   0  0  0  0  0  0  0  0  0  0  0  0
   -3.5159   28.6222    9.3836 H   0  0  0  0  0  0  0  0  0  0  0  0
  1 16  1  0  0  0  0
  1 17  1  0  0  0  0
  2 19  2  0  0  0  0
  3 18  1  0  0  0  0
  4 16  2  0  0  0  0
  4 18  1  0  0  0  0
  5 16  1  0  0  0  0
  5 20  1  0  0  0  0
  6  8  2  0  0  0  0
  6  9  1  0  0  0  0
  7 10  2  0  0  0  0
  7 11  1  0  0  0  0
  8 12  1  0  0  0  0
  9 13  2  0  0  0  0
 10 14  1  0  0  0  0
 11 15  2  0  0  0  0
 12 20  2  0  0  0  0
 13 20  1  0  0  0  0
 14 21  2  0  0  0  0
 15 21  1  0  0  0  0
 17 18  2  0  0  0  0
 17 19  1  0  0  0  0
 19 21  1  0  0  0  0
  3 22  1  0  0  0  0
  3 23  1  0  0  0  0
  5 24  1  0  0  0  0
  6 25  1  0  0  0  0
  7 26  1  0  0  0  0
  8 27  1  0  0  0  0
  9 28  1  0  0  0  0
 10 29  1  0  0  0  0
 11 30  1  0  0  0  0
 12 31  1  0  0  0  0
 13 32  1  0  0  0  0
 14 33  1  0  0  0  0
 15 34  1  0  0  0  0
M  END
$$$$
