X43_A_299
          05071912473D 1   1.00000     0.00000     0
            
 41 43  0  0  0  0            999 V2000
    1.0823   28.0689    8.0525 S   0  0  0  0  0  0  0  0  0  0  0  0
    6.6784   23.8207    7.3673 S   0  0  0  0  0  0  0  0  0  0  0  0
    8.0050   24.4869    8.0624 O   0  0  0  0  0  0  0  0  0  0  0  0
    7.1044   23.1296    6.0938 O   0  0  0  0  0  0  0  0  0  0  0  0
   -5.3705   26.7097    9.7811 O   0  5  0  0  0  0  0  0  0  0  0  0
   -4.8266   25.2312   11.2729 O   0  0  0  0  0  0  0  0  0  0  0  0
   -1.8346   30.5634    9.1590 O   0  0  0  0  0  0  0  0  0  0  0  0
    6.1013   22.8619    8.4527 N   0  0  0  0  0  0  0  0  0  0  0  0
   -0.0886   31.7089    7.3111 N   0  0  0  0  0  0  0  0  0  0  0  0
    1.5974   30.2143    6.7148 N   0  0  0  0  0  0  0  0  0  0  0  0
    3.2105   28.5729    6.3236 N   0  0  0  0  0  0  0  0  0  0  0  0
   -4.4675   26.1741   10.5974 N   0  3  0  0  0  0  0  0  0  0  0  0
   -0.9155   26.5837   11.6288 C   0  0  0  0  0  0  0  0  0  0  0  0
    5.9538   26.1067    6.0650 C   0  0  0  0  0  0  0  0  0  0  0  0
    4.4206   25.3174    7.8127 C   0  0  0  0  0  0  0  0  0  0  0  0
    5.1262   27.2244    5.8132 C   0  0  0  0  0  0  0  0  0  0  0  0
    3.5913   26.4391    7.5739 C   0  0  0  0  0  0  0  0  0  0  0  0
   -2.2377   26.0713   11.5591 C   0  0  0  0  0  0  0  0  0  0  0  0
   -0.5343   27.6852   10.8147 C   0  0  0  0  0  0  0  0  0  0  0  0
   -2.8099   27.7767    9.8506 C   0  0  0  0  0  0  0  0  0  0  0  0
    2.0589   28.9838    6.9575 C   0  0  0  0  0  0  0  0  0  0  0  0
    0.0437   29.4368    8.2261 C   0  0  0  0  0  0  0  0  0  0  0  0
    5.6095   25.1613    7.0627 C   0  0  0  0  0  0  0  0  0  0  0  0
    0.4892   30.4898    7.4167 C   0  0  0  0  0  0  0  0  0  0  0  0
   -1.0596   29.4518    9.0624 C   0  0  0  0  0  0  0  0  0  0  0  0
    3.9278   27.4214    6.5646 C   0  0  0  0  0  0  0  0  0  0  0  0
   -3.2193   26.6550   10.6703 C   0  0  0  0  0  0  0  0  0  0  0  0
   -1.4765   28.2922    9.9159 C   0  0  0  0  0  0  0  0  0  0  0  0
    5.2807   22.4132    8.0988 H   0  0  0  0  0  0  0  0  0  0  0  0
    6.7856   22.1705    8.6846 H   0  0  0  0  0  0  0  0  0  0  0  0
   -0.9154   31.9173    7.8335 H   0  0  0  0  0  0  0  0  0  0  0  0
    0.3113   32.4014    6.7106 H   0  0  0  0  0  0  0  0  0  0  0  0
    3.5652   29.1768    5.6098 H   0  0  0  0  0  0  0  0  0  0  0  0
   -0.2515   26.1694   12.2512 H   0  0  0  0  0  0  0  0  0  0  0  0
    6.7914   25.9818    5.5332 H   0  0  0  0  0  0  0  0  0  0  0  0
    4.1684   24.6416    8.5053 H   0  0  0  0  0  0  0  0  0  0  0  0
    5.3814   27.8817    5.1041 H   0  0  0  0  0  0  0  0  0  0  0  0
    2.7568   26.5555    8.1125 H   0  0  0  0  0  0  0  0  0  0  0  0
   -2.4949   25.2943   12.1337 H   0  0  0  0  0  0  0  0  0  0  0  0
    0.3988   28.0410   10.8683 H   0  0  0  0  0  0  0  0  0  0  0  0
   -3.4700   28.1980    9.2287 H   0  0  0  0  0  0  0  0  0  0  0  0
  1 21  1  0  0  0  0
  1 22  1  0  0  0  0
  2  3  2  0  0  0  0
  2  4  2  0  0  0  0
  2  8  1  0  0  0  0
  2 23  1  0  0  0  0
  5 12  1  0  0  0  0
  6 12  2  0  0  0  0
  7 25  2  0  0  0  0
  9 24  1  0  0  0  0
 10 21  2  0  0  0  0
 10 24  1  0  0  0  0
 11 21  1  0  0  0  0
 11 26  1  0  0  0  0
 12 27  1  0  0  0  0
 13 18  1  0  0  0  0
 13 19  2  0  0  0  0
 14 16  1  0  0  0  0
 14 23  2  0  0  0  0
 15 17  2  0  0  0  0
 15 23  1  0  0  0  0
 16 26  2  0  0  0  0
 17 26  1  0  0  0  0
 18 27  2  0  0  0  0
 19 28  1  0  0  0  0
 20 27  1  0  0  0  0
 20 28  2  0  0  0  0
 22 24  2  0  0  0  0
 22 25  1  0  0  0  0
 25 28  1  0  0  0  0
  8 29  1  0  0  0  0
  8 30  1  0  0  0  0
  9 31  1  0  0  0  0
  9 32  1  0  0  0  0
 11 33  1  0  0  0  0
 13 34  1  0  0  0  0
 14 35  1  0  0  0  0
 15 36  1  0  0  0  0
 16 37  1  0  0  0  0
 17 38  1  0  0  0  0
 18 39  1  0  0  0  0
 19 40  1  0  0  0  0
 20 41  1  0  0  0  0
M  CHG  2   5  -1  12   1
M  END
$$$$
