X42_A_453
          05071912473D 1   1.00000     0.00000     0
            
 39 41  0  0  0  0            999 V2000
    0.9839   28.1504    7.9398 S   0  0  0  0  0  0  0  0  0  0  0  0
    6.5102   23.8622    7.3847 S   0  0  0  0  0  0  0  0  0  0  0  0
   -4.6371   26.8171   10.5242 F   0  0  0  0  0  0  0  0  0  0  0  0
    7.5734   24.3413    8.2227 O   0  0  0  0  0  0  0  0  0  0  0  0
    7.0668   23.3650    6.1383 O   0  0  0  0  0  0  0  0  0  0  0  0
   -1.6615   30.7711    9.0764 O   0  0  0  0  0  0  0  0  0  0  0  0
    5.6940   22.6322    8.2139 N   0  0  0  0  0  0  0  0  0  0  0  0
    0.2569   31.8307    7.5319 N   0  0  0  0  0  0  0  0  0  0  0  0
    1.8090   30.2987    6.7726 N   0  0  0  0  0  0  0  0  0  0  0  0
    3.0646   28.5039    6.2739 N   0  0  0  0  0  0  0  0  0  0  0  0
   -1.0907   26.8051   11.4500 C   0  0  0  0  0  0  0  0  0  0  0  0
   -2.4612   26.4424   11.3947 C   0  0  0  0  0  0  0  0  0  0  0  0
    5.6437   26.0069    5.8798 C   0  0  0  0  0  0  0  0  0  0  0  0
    4.4170   25.5443    7.9724 C   0  0  0  0  0  0  0  0  0  0  0  0
   -0.6060   27.8919   10.6733 C   0  0  0  0  0  0  0  0  0  0  0  0
    4.8095   27.1204    5.6330 C   0  0  0  0  0  0  0  0  0  0  0  0
    3.5836   26.6548    7.7296 C   0  0  0  0  0  0  0  0  0  0  0  0
   -2.8859   28.2603    9.7772 C   0  0  0  0  0  0  0  0  0  0  0  0
    2.0668   29.0193    6.9070 C   0  0  0  0  0  0  0  0  0  0  0  0
    0.0883   29.5951    8.2300 C   0  0  0  0  0  0  0  0  0  0  0  0
    5.4442   25.2243    7.0549 C   0  0  0  0  0  0  0  0  0  0  0  0
   -3.3561   27.1656   10.5665 C   0  0  0  0  0  0  0  0  0  0  0  0
   -1.0462   29.7057    9.0441 C   0  0  0  0  0  0  0  0  0  0  0  0
    0.6925   30.6381    7.5139 C   0  0  0  0  0  0  0  0  0  0  0  0
    3.7730   27.4613    6.5560 C   0  0  0  0  0  0  0  0  0  0  0  0
   -1.5018   28.6359    9.8190 C   0  0  0  0  0  0  0  0  0  0  0  0
    4.9483   22.2849    7.6453 H   0  0  0  0  0  0  0  0  0  0  0  0
    6.3308   21.8890    8.4189 H   0  0  0  0  0  0  0  0  0  0  0  0
   -0.5521   32.0594    8.0734 H   0  0  0  0  0  0  0  0  0  0  0  0
    0.7227   32.5412    7.0045 H   0  0  0  0  0  0  0  0  0  0  0  0
    3.3304   28.9840    5.4379 H   0  0  0  0  0  0  0  0  0  0  0  0
   -0.4635   26.2940   12.0376 H   0  0  0  0  0  0  0  0  0  0  0  0
   -2.7967   25.6751   11.9412 H   0  0  0  0  0  0  0  0  0  0  0  0
    6.3695   25.7691    5.2344 H   0  0  0  0  0  0  0  0  0  0  0  0
    4.2823   24.9849    8.7902 H   0  0  0  0  0  0  0  0  0  0  0  0
    0.3609   28.1429   10.7186 H   0  0  0  0  0  0  0  0  0  0  0  0
    4.9449   27.6717    4.8097 H   0  0  0  0  0  0  0  0  0  0  0  0
    2.8568   26.8824    8.3776 H   0  0  0  0  0  0  0  0  0  0  0  0
   -3.5227   28.7654    9.1947 H   0  0  0  0  0  0  0  0  0  0  0  0
  1 19  1  0  0  0  0
  1 20  1  0  0  0  0
  2  4  2  0  0  0  0
  2  5  2  0  0  0  0
  2  7  1  0  0  0  0
  2 21  1  0  0  0  0
  3 22  1  0  0  0  0
  6 23  2  0  0  0  0
  8 24  1  0  0  0  0
  9 19  2  0  0  0  0
  9 24  1  0  0  0  0
 10 19  1  0  0  0  0
 10 25  1  0  0  0  0
 11 12  2  0  0  0  0
 11 15  1  0  0  0  0
 12 22  1  0  0  0  0
 13 16  1  0  0  0  0
 13 21  2  0  0  0  0
 14 17  2  0  0  0  0
 14 21  1  0  0  0  0
 15 26  2  0  0  0  0
 16 25  2  0  0  0  0
 17 25  1  0  0  0  0
 18 22  2  0  0  0  0
 18 26  1  0  0  0  0
 20 23  1  0  0  0  0
 20 24  2  0  0  0  0
 23 26  1  0  0  0  0
  7 27  1  0  0  0  0
  7 28  1  0  0  0  0
  8 29  1  0  0  0  0
  8 30  1  0  0  0  0
 10 31  1  0  0  0  0
 11 32  1  0  0  0  0
 12 33  1  0  0  0  0
 13 34  1  0  0  0  0
 14 35  1  0  0  0  0
 15 36  1  0  0  0  0
 16 37  1  0  0  0  0
 17 38  1  0  0  0  0
 18 39  1  0  0  0  0
M  END
$$$$
