X40_A_454
          05071912473D 1   1.00000     0.00000     0
            
 38 40  0  0  0  0            999 V2000
    0.9541   28.0862    7.9868 S   0  0  0  0  0  0  0  0  0  0  0  0
    6.5728   23.8963    7.3767 S   0  0  0  0  0  0  0  0  0  0  0  0
    7.5970   24.3616    8.2625 O   0  0  0  0  0  0  0  0  0  0  0  0
    7.1608   23.4583    6.1212 O   0  0  0  0  0  0  0  0  0  0  0  0
   -1.7875   30.6137    9.1005 O   0  0  0  0  0  0  0  0  0  0  0  0
    5.7737   22.6077    8.1121 N   0  0  0  0  0  0  0  0  0  0  0  0
    0.0416   31.7031    7.5276 N   0  0  0  0  0  0  0  0  0  0  0  0
   -3.2421   27.2111   11.0252 N   0  0  0  0  0  0  0  0  0  0  0  0
    1.6451   30.2417    6.7689 N   0  0  0  0  0  0  0  0  0  0  0  0
    3.0152   28.5068    6.2752 N   0  0  0  0  0  0  0  0  0  0  0  0
   -2.2813   26.4961   11.7155 C   0  0  0  0  0  0  0  0  0  0  0  0
   -0.9070   26.7558   11.5981 C   0  0  0  0  0  0  0  0  0  0  0  0
   -2.8225   28.2148   10.1795 C   0  0  0  0  0  0  0  0  0  0  0  0
    4.5354   25.6429    8.0618 C   0  0  0  0  0  0  0  0  0  0  0  0
    5.5690   25.9511    5.8374 C   0  0  0  0  0  0  0  0  0  0  0  0
   -0.5032   27.7939   10.7294 C   0  0  0  0  0  0  0  0  0  0  0  0
    3.6791   26.7460    7.8204 C   0  0  0  0  0  0  0  0  0  0  0  0
    4.7129   27.0542    5.5920 C   0  0  0  0  0  0  0  0  0  0  0  0
    1.9755   28.9903    6.9192 C   0  0  0  0  0  0  0  0  0  0  0  0
    5.4802   25.2474    7.0723 C   0  0  0  0  0  0  0  0  0  0  0  0
    0.0022   29.4933    8.2763 C   0  0  0  0  0  0  0  0  0  0  0  0
    0.5344   30.5404    7.5248 C   0  0  0  0  0  0  0  0  0  0  0  0
   -1.1104   29.5825    9.1147 C   0  0  0  0  0  0  0  0  0  0  0  0
    3.7579   27.4744    6.5728 C   0  0  0  0  0  0  0  0  0  0  0  0
   -1.4685   28.5535    9.9865 C   0  0  0  0  0  0  0  0  0  0  0  0
    5.0542   22.2712    7.5046 H   0  0  0  0  0  0  0  0  0  0  0  0
    6.4259   21.8722    8.2958 H   0  0  0  0  0  0  0  0  0  0  0  0
   -0.7658   31.9026    8.0828 H   0  0  0  0  0  0  0  0  0  0  0  0
    0.4588   32.4243    6.9746 H   0  0  0  0  0  0  0  0  0  0  0  0
    3.2727   28.9972    5.4426 H   0  0  0  0  0  0  0  0  0  0  0  0
   -2.5785   25.7614   12.3254 H   0  0  0  0  0  0  0  0  0  0  0  0
   -0.2353   26.2231   12.1129 H   0  0  0  0  0  0  0  0  0  0  0  0
   -3.5158   28.7302    9.6759 H   0  0  0  0  0  0  0  0  0  0  0  0
    4.4762   25.1428    8.9258 H   0  0  0  0  0  0  0  0  0  0  0  0
    6.2332   25.6680    5.1455 H   0  0  0  0  0  0  0  0  0  0  0  0
    0.4698   28.0029   10.6305 H   0  0  0  0  0  0  0  0  0  0  0  0
    3.0165   27.0226    8.5164 H   0  0  0  0  0  0  0  0  0  0  0  0
    4.7768   27.5451    4.7231 H   0  0  0  0  0  0  0  0  0  0  0  0
  1 19  1  0  0  0  0
  1 21  1  0  0  0  0
  2  3  2  0  0  0  0
  2  4  2  0  0  0  0
  2  6  1  0  0  0  0
  2 20  1  0  0  0  0
  5 23  2  0  0  0  0
  7 22  1  0  0  0  0
  8 11  2  0  0  0  0
  8 13  1  0  0  0  0
  9 19  2  0  0  0  0
  9 22  1  0  0  0  0
 10 19  1  0  0  0  0
 10 24  1  0  0  0  0
 11 12  1  0  0  0  0
 12 16  2  0  0  0  0
 13 25  2  0  0  0  0
 14 17  1  0  0  0  0
 14 20  2  0  0  0  0
 15 18  2  0  0  0  0
 15 20  1  0  0  0  0
 16 25  1  0  0  0  0
 17 24  2  0  0  0  0
 18 24  1  0  0  0  0
 21 22  2  0  0  0  0
 21 23  1  0  0  0  0
 23 25  1  0  0  0  0
  6 26  1  0  0  0  0
  6 27  1  0  0  0  0
  7 28  1  0  0  0  0
  7 29  1  0  0  0  0
 10 30  1  0  0  0  0
 11 31  1  0  0  0  0
 12 32  1  0  0  0  0
 13 33  1  0  0  0  0
 14 34  1  0  0  0  0
 15 35  1  0  0  0  0
 16 36  1  0  0  0  0
 17 37  1  0  0  0  0
 18 38  1  0  0  0  0
M  END
$$$$
