X6A_A_483
          05071912473D 1   1.00000     0.00000     0
            
 33 34  0  0  0  0            999 V2000
   -0.4743   24.8791    8.6952 Cl  0  0  0  0  0  0  0  0  0  0  0  0
   -2.8249   26.1475    8.9854 O   0  5  0  0  0  0  0  0  0  0  0  0
   -3.2789   28.2781    8.4942 O   0  0  0  0  0  0  0  0  0  0  0  0
    1.7713   30.5544    6.1286 O   0  0  0  0  0  0  0  0  0  0  0  0
    4.7834   23.3612    3.9000 N   0  0  0  0  0  0  0  0  0  0  0  0
    0.1577   31.4389    7.3944 N   0  0  0  0  0  0  0  0  0  0  0  0
    4.4187   23.9885    6.0208 N   0  0  0  0  0  0  0  0  0  0  0  0
    4.6034   25.5840    4.2095 N   0  0  0  0  0  0  0  0  0  0  0  0
    2.8023   28.3046    7.0579 N   0  0  0  0  0  0  0  0  0  0  0  0
   -2.4032   27.3090    8.5531 N   0  3  0  0  0  0  0  0  0  0  0  0
    4.2242   25.0267    6.8780 C   0  0  0  0  0  0  0  0  0  0  0  0
    4.4001   26.5908    5.1208 C   0  0  0  0  0  0  0  0  0  0  0  0
    3.9699   27.4776    7.4802 C   0  0  0  0  0  0  0  0  0  0  0  0
    1.1681   26.7680    7.8421 C   0  0  0  0  0  0  0  0  0  0  0  0
   -0.7764   28.8134    7.7570 C   0  0  0  0  0  0  0  0  0  0  0  0
    4.6010   24.3169    4.7137 C   0  0  0  0  0  0  0  0  0  0  0  0
    0.8772   30.3706    6.9332 C   0  0  0  0  0  0  0  0  0  0  0  0
   -0.1531   26.4816    8.2248 C   0  0  0  0  0  0  0  0  0  0  0  0
    1.5630   28.0643    7.4101 C   0  0  0  0  0  0  0  0  0  0  0  0
    4.2018   26.3690    6.4891 C   0  0  0  0  0  0  0  0  0  0  0  0
   -1.1645   27.5132    8.1972 C   0  0  0  0  0  0  0  0  0  0  0  0
    0.5734   29.1008    7.3593 C   0  0  0  0  0  0  0  0  0  0  0  0
    4.9221   23.5515    2.9282 H   0  0  0  0  0  0  0  0  0  0  0  0
    4.7884   22.4174    4.2304 H   0  0  0  0  0  0  0  0  0  0  0  0
   -0.5789   31.2976    8.0557 H   0  0  0  0  0  0  0  0  0  0  0  0
    0.3684   32.3611    7.0701 H   0  0  0  0  0  0  0  0  0  0  0  0
    2.9764   29.0931    6.4681 H   0  0  0  0  0  0  0  0  0  0  0  0
    4.0888   24.8165    7.8462 H   0  0  0  0  0  0  0  0  0  0  0  0
    4.3932   27.5342    4.7891 H   0  0  0  0  0  0  0  0  0  0  0  0
    3.7879   27.0835    8.3811 H   0  0  0  0  0  0  0  0  0  0  0  0
    4.7848   28.0552    7.5275 H   0  0  0  0  0  0  0  0  0  0  0  0
    1.8514   26.0385    7.8744 H   0  0  0  0  0  0  0  0  0  0  0  0
   -1.4604   29.5421    7.7245 H   0  0  0  0  0  0  0  0  0  0  0  0
  1 18  1  0  0  0  0
  2 10  1  0  0  0  0
  3 10  2  0  0  0  0
  4 17  2  0  0  0  0
  5 16  1  0  0  0  0
  6 17  1  0  0  0  0
  7 11  1  0  0  0  0
  7 16  2  0  0  0  0
  8 12  2  0  0  0  0
  8 16  1  0  0  0  0
  9 13  1  0  0  0  0
  9 19  1  0  0  0  0
 10 21  1  0  0  0  0
 11 20  2  0  0  0  0
 12 20  1  0  0  0  0
 13 20  1  0  0  0  0
 14 18  2  0  0  0  0
 14 19  1  0  0  0  0
 15 21  2  0  0  0  0
 15 22  1  0  0  0  0
 17 22  1  0  0  0  0
 18 21  1  0  0  0  0
 19 22  2  0  0  0  0
  5 23  1  0  0  0  0
  5 24  1  0  0  0  0
  6 25  1  0  0  0  0
  6 26  1  0  0  0  0
  9 27  1  0  0  0  0
 11 28  1  0  0  0  0
 12 29  1  0  0  0  0
 13 30  1  0  0  0  0
 13 31  1  0  0  0  0
 14 32  1  0  0  0  0
 15 33  1  0  0  0  0
M  CHG  2   2  -1  10   1
M  END
$$$$
