X62_A_493
          05071912473D 1   1.00000     0.00000     0
            
 31 32  0  0  0  0            999 V2000
    5.4369   23.8440    3.1004 Cl  0  0  0  0  0  0  0  0  0  0  0  0
   -0.4532   24.8994    8.6262 Cl  0  0  0  0  0  0  0  0  0  0  0  0
   -3.3643   28.0593    8.1021 O   0  5  0  0  0  0  0  0  0  0  0  0
   -2.6936   26.3716    9.4212 O   0  0  0  0  0  0  0  0  0  0  0  0
    1.6957   30.6622    6.1103 O   0  0  0  0  0  0  0  0  0  0  0  0
    0.1169   31.5232    7.4336 N   0  0  0  0  0  0  0  0  0  0  0  0
    4.5052   26.1306    3.9868 N   0  0  0  0  0  0  0  0  0  0  0  0
    5.1787   24.5139    5.6392 N   0  0  0  0  0  0  0  0  0  0  0  0
    2.7561   28.4287    7.0291 N   0  0  0  0  0  0  0  0  0  0  0  0
   -2.3895   27.3198    8.5566 N   0  3  0  0  0  0  0  0  0  0  0  0
    4.1694   26.9797    5.0000 C   0  0  0  0  0  0  0  0  0  0  0  0
    4.8260   25.4025    6.6191 C   0  0  0  0  0  0  0  0  0  0  0  0
    3.9302   27.6265    7.4587 C   0  0  0  0  0  0  0  0  0  0  0  0
    1.1762   26.8381    7.7920 C   0  0  0  0  0  0  0  0  0  0  0  0
   -0.8038   28.8692    7.7775 C   0  0  0  0  0  0  0  0  0  0  0  0
    4.9993   24.9295    4.3586 C   0  0  0  0  0  0  0  0  0  0  0  0
    0.8284   30.4661    6.9535 C   0  0  0  0  0  0  0  0  0  0  0  0
   -0.1407   26.5239    8.1833 C   0  0  0  0  0  0  0  0  0  0  0  0
    1.5394   28.1613    7.3853 C   0  0  0  0  0  0  0  0  0  0  0  0
    4.3105   26.6683    6.3617 C   0  0  0  0  0  0  0  0  0  0  0  0
   -1.1634   27.5501    8.1932 C   0  0  0  0  0  0  0  0  0  0  0  0
    0.5368   29.1862    7.3660 C   0  0  0  0  0  0  0  0  0  0  0  0
   -0.5936   31.3764    8.1218 H   0  0  0  0  0  0  0  0  0  0  0  0
    0.3048   32.4462    7.0979 H   0  0  0  0  0  0  0  0  0  0  0  0
    2.9131   29.2166    6.4337 H   0  0  0  0  0  0  0  0  0  0  0  0
    3.8009   27.8775    4.7586 H   0  0  0  0  0  0  0  0  0  0  0  0
    4.9456   25.1261    7.5727 H   0  0  0  0  0  0  0  0  0  0  0  0
    3.6989   27.1128    8.2849 H   0  0  0  0  0  0  0  0  0  0  0  0
    4.6991   28.2367    7.6499 H   0  0  0  0  0  0  0  0  0  0  0  0
    1.8724   26.1204    7.7986 H   0  0  0  0  0  0  0  0  0  0  0  0
   -1.4997   29.5874    7.7728 H   0  0  0  0  0  0  0  0  0  0  0  0
  1 16  1  0  0  0  0
  2 18  1  0  0  0  0
  3 10  1  0  0  0  0
  4 10  2  0  0  0  0
  5 17  2  0  0  0  0
  6 17  1  0  0  0  0
  7 11  2  0  0  0  0
  7 16  1  0  0  0  0
  8 12  1  0  0  0  0
  8 16  2  0  0  0  0
  9 13  1  0  0  0  0
  9 19  1  0  0  0  0
 10 21  1  0  0  0  0
 11 20  1  0  0  0  0
 12 20  2  0  0  0  0
 13 20  1  0  0  0  0
 14 18  2  0  0  0  0
 14 19  1  0  0  0  0
 15 21  2  0  0  0  0
 15 22  1  0  0  0  0
 17 22  1  0  0  0  0
 18 21  1  0  0  0  0
 19 22  2  0  0  0  0
  6 23  1  0  0  0  0
  6 24  1  0  0  0  0
  9 25  1  0  0  0  0
 11 26  1  0  0  0  0
 12 27  1  0  0  0  0
 13 28  1  0  0  0  0
 13 29  1  0  0  0  0
 14 30  1  0  0  0  0
 15 31  1  0  0  0  0
M  CHG  2   3  -1  10   1
M  END
$$$$
