X63_A_300
          05071912473D 1   1.00000     0.00000     0
            
 42 43  0  0  0  0            999 V2000
   -1.7487   25.7427    9.8495 O   0  5  0  0  0  0  0  0  0  0  0  0
   -2.6934   27.3944    8.6331 O   0  0  0  0  0  0  0  0  0  0  0  0
    1.2186   22.4521    9.8126 O   0  0  0  0  0  0  0  0  0  0  0  0
    1.9310   30.3963    6.0911 O   0  0  0  0  0  0  0  0  0  0  0  0
    4.9294   23.3041    4.2715 N   0  0  0  0  0  0  0  0  0  0  0  0
    0.1666   31.1206    7.2239 N   0  0  0  0  0  0  0  0  0  0  0  0
    5.0563   24.1413    6.3729 N   0  0  0  0  0  0  0  0  0  0  0  0
    4.6378   25.5321    4.4434 N   0  0  0  0  0  0  0  0  0  0  0  0
    0.6120   25.1802    9.4422 N   0  0  0  0  0  0  0  0  0  0  0  0
    3.3453   28.4638    7.3434 N   0  0  0  0  0  0  0  0  0  0  0  0
   -1.6081   26.7690    9.0373 N   0  3  0  0  0  0  0  0  0  0  0  0
    2.2310   23.4128    9.9792 C   0  0  0  0  0  0  0  0  0  0  0  0
    1.6070   24.7205   10.4459 C   0  0  0  0  0  0  0  0  0  0  0  0
    4.9826   25.2568    7.1529 C   0  0  0  0  0  0  0  0  0  0  0  0
    4.5740   26.6154    5.2711 C   0  0  0  0  0  0  0  0  0  0  0  0
    4.6422   27.7416    7.5731 C   0  0  0  0  0  0  0  0  0  0  0  0
    1.9806   26.7917    8.4088 C   0  0  0  0  0  0  0  0  0  0  0  0
   -0.2967   28.4296    7.9885 C   0  0  0  0  0  0  0  0  0  0  0  0
    4.8743   24.3346    5.0322 C   0  0  0  0  0  0  0  0  0  0  0  0
    1.0669   30.1425    6.9135 C   0  0  0  0  0  0  0  0  0  0  0  0
    0.7142   26.3379    8.8523 C   0  0  0  0  0  0  0  0  0  0  0  0
    2.1526   28.0594    7.7485 C   0  0  0  0  0  0  0  0  0  0  0  0
   -0.4455   27.1561    8.6455 C   0  0  0  0  0  0  0  0  0  0  0  0
    4.7401   26.5386    6.6589 C   0  0  0  0  0  0  0  0  0  0  0  0
    0.9868   28.8944    7.5363 C   0  0  0  0  0  0  0  0  0  0  0  0
    1.6237   21.5908    9.5060 H   0  0  0  0  0  0  0  0  0  0  0  0
    4.8013   23.4036    3.2848 H   0  0  0  0  0  0  0  0  0  0  0  0
    5.1003   22.4008    4.6650 H   0  0  0  0  0  0  0  0  0  0  0  0
   -0.5536   30.9429    7.8945 H   0  0  0  0  0  0  0  0  0  0  0  0
    0.2274   32.0150    6.7806 H   0  0  0  0  0  0  0  0  0  0  0  0
   -0.1578   24.5845    9.2131 H   0  0  0  0  0  0  0  0  0  0  0  0
    3.3872   29.3266    6.8396 H   0  0  0  0  0  0  0  0  0  0  0  0
    2.7008   23.5583    9.1086 H   0  0  0  0  0  0  0  0  0  0  0  0
    2.8870   23.0926   10.6626 H   0  0  0  0  0  0  0  0  0  0  0  0
    1.1523   24.5779   11.3250 H   0  0  0  0  0  0  0  0  0  0  0  0
    2.3213   25.4128   10.5485 H   0  0  0  0  0  0  0  0  0  0  0  0
    5.1100   25.1498    8.1389 H   0  0  0  0  0  0  0  0  0  0  0  0
    4.3993   27.5121    4.8644 H   0  0  0  0  0  0  0  0  0  0  0  0
    4.6870   27.4377    8.5248 H   0  0  0  0  0  0  0  0  0  0  0  0
    5.4036   28.3621    7.3852 H   0  0  0  0  0  0  0  0  0  0  0  0
    2.7816   26.2124    8.5592 H   0  0  0  0  0  0  0  0  0  0  0  0
   -1.1033   29.0026    7.8437 H   0  0  0  0  0  0  0  0  0  0  0  0
  1 11  1  0  0  0  0
  2 11  2  0  0  0  0
  3 12  1  0  0  0  0
  4 20  2  0  0  0  0
  5 19  1  0  0  0  0
  6 20  1  0  0  0  0
  7 14  1  0  0  0  0
  7 19  2  0  0  0  0
  8 15  2  0  0  0  0
  8 19  1  0  0  0  0
  9 13  1  0  0  0  0
  9 21  1  0  0  0  0
 10 16  1  0  0  0  0
 10 22  1  0  0  0  0
 11 23  1  0  0  0  0
 12 13  1  0  0  0  0
 14 24  2  0  0  0  0
 15 24  1  0  0  0  0
 16 24  1  0  0  0  0
 17 21  2  0  0  0  0
 17 22  1  0  0  0  0
 18 23  2  0  0  0  0
 18 25  1  0  0  0  0
 20 25  1  0  0  0  0
 21 23  1  0  0  0  0
 22 25  2  0  0  0  0
  3 26  1  0  0  0  0
  5 27  1  0  0  0  0
  5 28  1  0  0  0  0
  6 29  1  0  0  0  0
  6 30  1  0  0  0  0
  9 31  1  0  0  0  0
 10 32  1  0  0  0  0
 12 33  1  0  0  0  0
 12 34  1  0  0  0  0
 13 35  1  0  0  0  0
 13 36  1  0  0  0  0
 14 37  1  0  0  0  0
 15 38  1  0  0  0  0
 16 39  1  0  0  0  0
 16 40  1  0  0  0  0
 17 41  1  0  0  0  0
 18 42  1  0  0  0  0
M  CHG  2   1  -1  11   1
M  END
$$$$
