X4B_A_454
          05071912473D 1   1.00000     0.00000     0
            
 32 33  0  0  0  0            999 V2000
   -0.4696   24.8901    8.7184 Cl  0  0  0  0  0  0  0  0  0  0  0  0
   -3.2927   28.0935    8.0804 O   0  5  0  0  0  0  0  0  0  0  0  0
   -2.6559   26.4304    9.4467 O   0  0  0  0  0  0  0  0  0  0  0  0
    1.8017   30.5786    6.0477 O   0  0  0  0  0  0  0  0  0  0  0  0
    0.2164   31.4509    7.3679 N   0  0  0  0  0  0  0  0  0  0  0  0
    4.7988   24.1592    5.6656 N   0  0  0  0  0  0  0  0  0  0  0  0
    2.8455   28.3286    6.9765 N   0  0  0  0  0  0  0  0  0  0  0  0
   -2.3312   27.3455    8.5644 N   0  3  0  0  0  0  0  0  0  0  0  0
    4.8954   24.5551    4.3482 C   0  0  0  0  0  0  0  0  0  0  0  0
    4.5157   25.1212    6.6097 C   0  0  0  0  0  0  0  0  0  0  0  0
    4.0150   27.4920    7.3696 C   0  0  0  0  0  0  0  0  0  0  0  0
    4.7166   25.8850    3.9299 C   0  0  0  0  0  0  0  0  0  0  0  0
    4.4256   26.8561    4.9236 C   0  0  0  0  0  0  0  0  0  0  0  0
    1.2297   26.7722    7.8048 C   0  0  0  0  0  0  0  0  0  0  0  0
   -0.7111   28.8361    7.7427 C   0  0  0  0  0  0  0  0  0  0  0  0
    0.9277   30.3879    6.8842 C   0  0  0  0  0  0  0  0  0  0  0  0
   -0.1042   26.4930    8.2159 C   0  0  0  0  0  0  0  0  0  0  0  0
    1.6185   28.0814    7.3546 C   0  0  0  0  0  0  0  0  0  0  0  0
    4.3222   26.4802    6.2903 C   0  0  0  0  0  0  0  0  0  0  0  0
   -1.1011   27.5390    8.1956 C   0  0  0  0  0  0  0  0  0  0  0  0
    0.6292   29.1191    7.3197 C   0  0  0  0  0  0  0  0  0  0  0  0
   -0.4990   31.3045    8.0511 H   0  0  0  0  0  0  0  0  0  0  0  0
    0.4117   32.3747    7.0385 H   0  0  0  0  0  0  0  0  0  0  0  0
    3.0083   29.1229    6.3912 H   0  0  0  0  0  0  0  0  0  0  0  0
    5.1026   23.8626    3.6572 H   0  0  0  0  0  0  0  0  0  0  0  0
    4.4439   24.8422    7.5673 H   0  0  0  0  0  0  0  0  0  0  0  0
    3.8059   27.0123    8.2217 H   0  0  0  0  0  0  0  0  0  0  0  0
    4.8113   28.0814    7.5056 H   0  0  0  0  0  0  0  0  0  0  0  0
    4.7917   26.1384    2.9654 H   0  0  0  0  0  0  0  0  0  0  0  0
    4.2925   27.8115    4.6600 H   0  0  0  0  0  0  0  0  0  0  0  0
    1.9118   26.0414    7.8297 H   0  0  0  0  0  0  0  0  0  0  0  0
   -1.3924   29.5677    7.7199 H   0  0  0  0  0  0  0  0  0  0  0  0
  1 17  1  0  0  0  0
  2  8  1  0  0  0  0
  3  8  2  0  0  0  0
  4 16  2  0  0  0  0
  5 16  1  0  0  0  0
  6  9  2  0  0  0  0
  6 10  1  0  0  0  0
  7 11  1  0  0  0  0
  7 18  1  0  0  0  0
  8 20  1  0  0  0  0
  9 12  1  0  0  0  0
 10 19  2  0  0  0  0
 11 19  1  0  0  0  0
 12 13  2  0  0  0  0
 13 19  1  0  0  0  0
 14 17  2  0  0  0  0
 14 18  1  0  0  0  0
 15 20  2  0  0  0  0
 15 21  1  0  0  0  0
 16 21  1  0  0  0  0
 17 20  1  0  0  0  0
 18 21  2  0  0  0  0
  5 22  1  0  0  0  0
  5 23  1  0  0  0  0
  7 24  1  0  0  0  0
  9 25  1  0  0  0  0
 10 26  1  0  0  0  0
 11 27  1  0  0  0  0
 11 28  1  0  0  0  0
 12 29  1  0  0  0  0
 13 30  1  0  0  0  0
 14 31  1  0  0  0  0
 15 32  1  0  0  0  0
M  CHG  2   2  -1   8   1
M  END
$$$$
