X65_A_668
          05071912473D 1   1.00000     0.00000     0
            
 38 39  0  0  0  0            999 V2000
    5.6700   23.1183    3.7318 S   0  0  0  0  0  0  0  0  0  0  0  0
    6.7438   23.5510    2.5813 O   0  0  0  0  0  0  0  0  0  0  0  0
    6.2112   21.9281    4.4552 O   0  0  0  0  0  0  0  0  0  0  0  0
   -3.0439   27.8151    8.6480 O   0  5  0  0  0  0  0  0  0  0  0  0
   -2.2880   25.9144    9.4196 O   0  0  0  0  0  0  0  0  0  0  0  0
    1.9613   30.4405    6.0399 O   0  0  0  0  0  0  0  0  0  0  0  0
    4.4955   22.6263    2.9464 N   0  0  0  0  0  0  0  0  0  0  0  0
    0.1636   31.2270    7.2418 N   0  0  0  0  0  0  0  0  0  0  0  0
    3.1598   28.3571    7.3230 N   0  0  0  0  0  0  0  0  0  0  0  0
   -2.0267   26.9714    8.8670 N   0  3  0  0  0  0  0  0  0  0  0  0
    4.3986   27.6445    7.5957 C   0  0  0  0  0  0  0  0  0  0  0  0
    5.5072   24.2651    6.2064 C   0  0  0  0  0  0  0  0  0  0  0  0
    4.7792   25.6584    4.2998 C   0  0  0  0  0  0  0  0  0  0  0  0
    1.6259   26.7128    8.3131 C   0  0  0  0  0  0  0  0  0  0  0  0
    0.3158   26.3762    8.7187 C   0  0  0  0  0  0  0  0  0  0  0  0
    5.2124   25.3164    7.0979 C   0  0  0  0  0  0  0  0  0  0  0  0
    4.4821   26.7217    5.1940 C   0  0  0  0  0  0  0  0  0  0  0  0
   -0.5149   28.5188    7.8497 C   0  0  0  0  0  0  0  0  0  0  0  0
    0.9667   30.1841    6.9032 C   0  0  0  0  0  0  0  0  0  0  0  0
    5.2945   24.4317    4.8126 C   0  0  0  0  0  0  0  0  0  0  0  0
    1.9180   27.9792    7.6410 C   0  0  0  0  0  0  0  0  0  0  0  0
   -0.7843   27.2743    8.4944 C   0  0  0  0  0  0  0  0  0  0  0  0
    4.7001   26.5476    6.6092 C   0  0  0  0  0  0  0  0  0  0  0  0
    0.8010   28.9111    7.4214 C   0  0  0  0  0  0  0  0  0  0  0  0
    3.7737   22.3342    3.5738 H   0  0  0  0  0  0  0  0  0  0  0  0
    4.1524   23.3627    2.3632 H   0  0  0  0  0  0  0  0  0  0  0  0
   -0.5923   31.0887    7.8817 H   0  0  0  0  0  0  0  0  0  0  0  0
    0.3287   32.1325    6.8511 H   0  0  0  0  0  0  0  0  0  0  0  0
    3.2476   29.2298    6.8426 H   0  0  0  0  0  0  0  0  0  0  0  0
    4.3347   27.2393    8.5077 H   0  0  0  0  0  0  0  0  0  0  0  0
    5.1515   28.3023    7.5752 H   0  0  0  0  0  0  0  0  0  0  0  0
    5.8669   23.4002    6.5564 H   0  0  0  0  0  0  0  0  0  0  0  0
    4.6281   25.7694    3.3175 H   0  0  0  0  0  0  0  0  0  0  0  0
    2.3717   26.0704    8.4895 H   0  0  0  0  0  0  0  0  0  0  0  0
    0.1505   25.4989    9.1692 H   0  0  0  0  0  0  0  0  0  0  0  0
    5.3647   25.1949    8.0788 H   0  0  0  0  0  0  0  0  0  0  0  0
    4.1234   27.5870    4.8438 H   0  0  0  0  0  0  0  0  0  0  0  0
   -1.2761   29.1470    7.6883 H   0  0  0  0  0  0  0  0  0  0  0  0
  1  2  2  0  0  0  0
  1  3  2  0  0  0  0
  1  7  1  0  0  0  0
  1 20  1  0  0  0  0
  4 10  1  0  0  0  0
  5 10  2  0  0  0  0
  6 19  2  0  0  0  0
  8 19  1  0  0  0  0
  9 11  1  0  0  0  0
  9 21  1  0  0  0  0
 10 22  1  0  0  0  0
 11 23  1  0  0  0  0
 12 16  2  0  0  0  0
 12 20  1  0  0  0  0
 13 17  1  0  0  0  0
 13 20  2  0  0  0  0
 14 15  1  0  0  0  0
 14 21  2  0  0  0  0
 15 22  2  0  0  0  0
 16 23  1  0  0  0  0
 17 23  2  0  0  0  0
 18 22  1  0  0  0  0
 18 24  2  0  0  0  0
 19 24  1  0  0  0  0
 21 24  1  0  0  0  0
  7 25  1  0  0  0  0
  7 26  1  0  0  0  0
  8 27  1  0  0  0  0
  8 28  1  0  0  0  0
  9 29  1  0  0  0  0
 11 30  1  0  0  0  0
 11 31  1  0  0  0  0
 12 32  1  0  0  0  0
 13 33  1  0  0  0  0
 14 34  1  0  0  0  0
 15 35  1  0  0  0  0
 16 36  1  0  0  0  0
 17 37  1  0  0  0  0
 18 38  1  0  0  0  0
M  CHG  2   4  -1  10   1
M  END
$$$$
