X66_A_299
          05071912473D 1   1.00000     0.00000     0
            
 25 26  0  0  0  0            999 V2000
   -2.3436   29.3447    9.9614 O   0  0  0  0  0  0  0  0  0  0  0  0
    1.8818   30.3639    6.5302 O   0  0  0  0  0  0  0  0  0  0  0  0
    2.6206   24.5929    9.2617 N   0  0  0  0  0  0  0  0  0  0  0  0
    4.8357   27.3299    6.2436 N   0  0  0  0  0  0  0  0  0  0  0  0
    3.7730   25.9121    7.7462 N   0  0  0  0  0  0  0  0  0  0  0  0
    1.7230   26.6386    8.7098 N   0  0  0  0  0  0  0  0  0  0  0  0
    2.8634   28.0159    7.1709 N   0  0  0  0  0  0  0  0  0  0  0  0
   -1.2918   30.7589    8.4904 C   0  0  0  0  0  0  0  0  0  0  0  0
   -0.2098   31.0242    7.6086 C   0  0  0  0  0  0  0  0  0  0  0  0
   -0.3176   28.5484    9.0250 C   0  0  0  0  0  0  0  0  0  0  0  0
    2.7048   25.6866    8.5871 C   0  0  0  0  0  0  0  0  0  0  0  0
    3.8463   27.0912    7.0326 C   0  0  0  0  0  0  0  0  0  0  0  0
   -1.3644   29.5287    9.2032 C   0  0  0  0  0  0  0  0  0  0  0  0
    0.8394   30.0663    7.4067 C   0  0  0  0  0  0  0  0  0  0  0  0
    1.7871   27.8205    8.0020 C   0  0  0  0  0  0  0  0  0  0  0  0
    0.8030   28.7833    8.1348 C   0  0  0  0  0  0  0  0  0  0  0  0
   -2.4239   28.4911   10.4761 H   0  0  0  0  0  0  0  0  0  0  0  0
    2.6168   29.7018    6.3841 H   0  0  0  0  0  0  0  0  0  0  0  0
    1.8414   24.4389    9.8692 H   0  0  0  0  0  0  0  0  0  0  0  0
    3.3345   23.8977    9.1780 H   0  0  0  0  0  0  0  0  0  0  0  0
    4.8729   28.1896    5.7341 H   0  0  0  0  0  0  0  0  0  0  0  0
    5.5669   26.6555    6.1404 H   0  0  0  0  0  0  0  0  0  0  0  0
   -2.0101   31.4439    8.6118 H   0  0  0  0  0  0  0  0  0  0  0  0
   -0.1789   31.8955    7.1189 H   0  0  0  0  0  0  0  0  0  0  0  0
   -0.3673   27.6859    9.5285 H   0  0  0  0  0  0  0  0  0  0  0  0
  1 13  1  0  0  0  0
  2 14  1  0  0  0  0
  3 11  1  0  0  0  0
  4 12  1  0  0  0  0
  5 11  2  0  0  0  0
  5 12  1  0  0  0  0
  6 11  1  0  0  0  0
  6 15  2  0  0  0  0
  7 12  2  0  0  0  0
  7 15  1  0  0  0  0
  8  9  1  0  0  0  0
  8 13  2  0  0  0  0
  9 14  2  0  0  0  0
 10 13  1  0  0  0  0
 10 16  2  0  0  0  0
 14 16  1  0  0  0  0
 15 16  1  0  0  0  0
  1 17  1  0  0  0  0
  2 18  1  0  0  0  0
  3 19  1  0  0  0  0
  3 20  1  0  0  0  0
  4 21  1  0  0  0  0
  4 22  1  0  0  0  0
  8 23  1  0  0  0  0
  9 24  1  0  0  0  0
 10 25  1  0  0  0  0
M  END
$$$$
