X69_A_839
          05071912473D 1   1.00000     0.00000     0
            
 36 37  0  0  0  0            999 V2000
   -2.6337   26.5426    9.5353 O   0  5  0  0  0  0  0  0  0  0  0  0
   -3.2686   28.2459    8.1912 O   0  0  0  0  0  0  0  0  0  0  0  0
    1.9152   30.4804    6.0573 O   0  0  0  0  0  0  0  0  0  0  0  0
   -0.4742   25.3510    8.9340 O   0  0  0  0  0  0  0  0  0  0  0  0
    0.2770   31.4349    7.2255 N   0  0  0  0  0  0  0  0  0  0  0  0
    4.7046   25.6572    4.1244 N   0  0  0  0  0  0  0  0  0  0  0  0
    2.8938   28.2623    7.0757 N   0  0  0  0  0  0  0  0  0  0  0  0
   -2.3091   27.4659    8.6665 N   0  3  0  0  0  0  0  0  0  0  0  0
   -0.6717   24.2244    8.1132 C   0  0  0  0  0  0  0  0  0  0  0  0
    4.7763   24.3456    4.5384 C   0  0  0  0  0  0  0  0  0  0  0  0
    4.4746   26.6248    5.0800 C   0  0  0  0  0  0  0  0  0  0  0  0
    4.0544   27.4179    7.4730 C   0  0  0  0  0  0  0  0  0  0  0  0
    4.6265   23.9524    5.8772 C   0  0  0  0  0  0  0  0  0  0  0  0
    4.3914   24.9682    6.8390 C   0  0  0  0  0  0  0  0  0  0  0  0
    1.2349   26.7900    8.0042 C   0  0  0  0  0  0  0  0  0  0  0  0
   -0.6673   28.8789    7.7602 C   0  0  0  0  0  0  0  0  0  0  0  0
    0.9994   30.3403    6.8365 C   0  0  0  0  0  0  0  0  0  0  0  0
   -0.1146   26.5677    8.4193 C   0  0  0  0  0  0  0  0  0  0  0  0
    1.6561   28.0565    7.4597 C   0  0  0  0  0  0  0  0  0  0  0  0
   -1.0822   27.6252    8.2986 C   0  0  0  0  0  0  0  0  0  0  0  0
    4.3116   26.3307    6.4488 C   0  0  0  0  0  0  0  0  0  0  0  0
    0.6804   29.1082    7.3408 C   0  0  0  0  0  0  0  0  0  0  0  0
   -0.4815   31.3305    7.8688 H   0  0  0  0  0  0  0  0  0  0  0  0
    0.5074   32.3393    6.8666 H   0  0  0  0  0  0  0  0  0  0  0  0
    3.0703   29.0411    6.4738 H   0  0  0  0  0  0  0  0  0  0  0  0
   -0.9278   23.4406    8.6789 H   0  0  0  0  0  0  0  0  0  0  0  0
   -1.4016   24.4143    7.4565 H   0  0  0  0  0  0  0  0  0  0  0  0
    0.1741   24.0181    7.6211 H   0  0  0  0  0  0  0  0  0  0  0  0
    4.9433   23.6386    3.8512 H   0  0  0  0  0  0  0  0  0  0  0  0
    4.4212   27.5797    4.7881 H   0  0  0  0  0  0  0  0  0  0  0  0
    3.8626   26.9942    8.3583 H   0  0  0  0  0  0  0  0  0  0  0  0
    4.8677   27.9947    7.5487 H   0  0  0  0  0  0  0  0  0  0  0  0
    4.6836   22.9903    6.1438 H   0  0  0  0  0  0  0  0  0  0  0  0
    4.2807   24.7220    7.8018 H   0  0  0  0  0  0  0  0  0  0  0  0
    1.9018   26.0503    8.0935 H   0  0  0  0  0  0  0  0  0  0  0  0
   -1.3364   29.6171    7.6738 H   0  0  0  0  0  0  0  0  0  0  0  0
  1  8  1  0  0  0  0
  2  8  2  0  0  0  0
  3 17  2  0  0  0  0
  4  9  1  0  0  0  0
  4 18  1  0  0  0  0
  5 17  1  0  0  0  0
  6 10  2  0  0  0  0
  6 11  1  0  0  0  0
  7 12  1  0  0  0  0
  7 19  1  0  0  0  0
  8 20  1  0  0  0  0
 10 13  1  0  0  0  0
 11 21  2  0  0  0  0
 12 21  1  0  0  0  0
 13 14  2  0  0  0  0
 14 21  1  0  0  0  0
 15 18  2  0  0  0  0
 15 19  1  0  0  0  0
 16 20  2  0  0  0  0
 16 22  1  0  0  0  0
 17 22  1  0  0  0  0
 18 20  1  0  0  0  0
 19 22  2  0  0  0  0
  5 23  1  0  0  0  0
  5 24  1  0  0  0  0
  7 25  1  0  0  0  0
  9 26  1  0  0  0  0
  9 27  1  0  0  0  0
  9 28  1  0  0  0  0
 10 29  1  0  0  0  0
 11 30  1  0  0  0  0
 12 31  1  0  0  0  0
 12 32  1  0  0  0  0
 13 33  1  0  0  0  0
 14 34  1  0  0  0  0
 15 35  1  0  0  0  0
 16 36  1  0  0  0  0
M  CHG  2   1  -1   8   1
M  END
$$$$
