X75_A_616
          05071912473D 1   1.00000     0.00000     0
            
 32 33  0  0  0  0            999 V2000
    5.4521   23.4058    3.1614 Cl  0  0  0  0  0  0  0  0  0  0  0  0
   -0.4906   24.8992    8.7103 Cl  0  0  0  0  0  0  0  0  0  0  0  0
   -3.3151   27.9574    8.1518 O   0  5  0  0  0  0  0  0  0  0  0  0
   -2.4797   26.6947    9.8242 O   0  0  0  0  0  0  0  0  0  0  0  0
    1.8342   30.5642    6.0379 O   0  0  0  0  0  0  0  0  0  0  0  0
    0.2602   31.4950    7.3235 N   0  0  0  0  0  0  0  0  0  0  0  0
    4.7985   25.8633    3.9444 N   0  0  0  0  0  0  0  0  0  0  0  0
    2.7658   28.2602    6.8275 N   0  0  0  0  0  0  0  0  0  0  0  0
   -2.2795   27.4004    8.7305 N   0  3  0  0  0  0  0  0  0  0  0  0
    4.4567   26.7868    4.9106 C   0  0  0  0  0  0  0  0  0  0  0  0
    3.9519   27.5036    7.3029 C   0  0  0  0  0  0  0  0  0  0  0  0
    4.9235   24.1504    5.6897 C   0  0  0  0  0  0  0  0  0  0  0  0
    4.5698   25.1202    6.6595 C   0  0  0  0  0  0  0  0  0  0  0  0
    1.1748   26.7585    7.7185 C   0  0  0  0  0  0  0  0  0  0  0  0
   -0.7037   28.8802    7.8167 C   0  0  0  0  0  0  0  0  0  0  0  0
    5.0247   24.5715    4.3521 C   0  0  0  0  0  0  0  0  0  0  0  0
    0.9462   30.4039    6.8633 C   0  0  0  0  0  0  0  0  0  0  0  0
   -0.1254   26.5062    8.2091 C   0  0  0  0  0  0  0  0  0  0  0  0
    1.5681   28.0561    7.2695 C   0  0  0  0  0  0  0  0  0  0  0  0
    4.3317   26.4622    6.2762 C   0  0  0  0  0  0  0  0  0  0  0  0
   -1.0894   27.5789    8.2752 C   0  0  0  0  0  0  0  0  0  0  0  0
    0.6183   29.1316    7.3080 C   0  0  0  0  0  0  0  0  0  0  0  0
   -0.4685   31.3793    7.9985 H   0  0  0  0  0  0  0  0  0  0  0  0
    0.4877   32.4079    6.9848 H   0  0  0  0  0  0  0  0  0  0  0  0
    2.9004   28.9636    6.1296 H   0  0  0  0  0  0  0  0  0  0  0  0
    4.2897   27.7315    4.6284 H   0  0  0  0  0  0  0  0  0  0  0  0
    3.7347   27.0536    8.1691 H   0  0  0  0  0  0  0  0  0  0  0  0
    4.7169   28.1335    7.4371 H   0  0  0  0  0  0  0  0  0  0  0  0
    5.0952   23.1996    5.9474 H   0  0  0  0  0  0  0  0  0  0  0  0
    4.4877   24.8556    7.6203 H   0  0  0  0  0  0  0  0  0  0  0  0
    1.8368   26.0097    7.6846 H   0  0  0  0  0  0  0  0  0  0  0  0
   -1.3663   29.6284    7.8509 H   0  0  0  0  0  0  0  0  0  0  0  0
  1 16  1  0  0  0  0
  2 18  1  0  0  0  0
  3  9  1  0  0  0  0
  4  9  2  0  0  0  0
  5 17  2  0  0  0  0
  6 17  1  0  0  0  0
  7 10  2  0  0  0  0
  7 16  1  0  0  0  0
  8 11  1  0  0  0  0
  8 19  1  0  0  0  0
  9 21  1  0  0  0  0
 10 20  1  0  0  0  0
 11 20  1  0  0  0  0
 12 13  1  0  0  0  0
 12 16  2  0  0  0  0
 13 20  2  0  0  0  0
 14 18  1  0  0  0  0
 14 19  2  0  0  0  0
 15 21  1  0  0  0  0
 15 22  2  0  0  0  0
 17 22  1  0  0  0  0
 18 21  2  0  0  0  0
 19 22  1  0  0  0  0
  6 23  1  0  0  0  0
  6 24  1  0  0  0  0
  8 25  1  0  0  0  0
 10 26  1  0  0  0  0
 11 27  1  0  0  0  0
 11 28  1  0  0  0  0
 12 29  1  0  0  0  0
 13 30  1  0  0  0  0
 14 31  1  0  0  0  0
 15 32  1  0  0  0  0
M  CHG  2   3  -1   9   1
M  END
$$$$
