X73_A_647
          05071912473D 1   1.00000     0.00000     0
            
 32 33  0  0  0  0            999 V2000
    5.6905   23.3108    3.5505 Cl  0  0  0  0  0  0  0  0  0  0  0  0
   -2.2231   26.0761    9.6559 O   0  5  0  0  0  0  0  0  0  0  0  0
   -3.0134   27.8796    8.5270 O   0  0  0  0  0  0  0  0  0  0  0  0
    1.9264   30.3360    6.0129 O   0  0  0  0  0  0  0  0  0  0  0  0
    0.3269   31.2799    7.2537 N   0  0  0  0  0  0  0  0  0  0  0  0
    4.9765   25.7900    4.2248 N   0  0  0  0  0  0  0  0  0  0  0  0
    3.0756   28.2709    7.1348 N   0  0  0  0  0  0  0  0  0  0  0  0
   -1.9915   27.1090    8.8735 N   0  3  0  0  0  0  0  0  0  0  0  0
    4.6664   26.7534    5.1616 C   0  0  0  0  0  0  0  0  0  0  0  0
    4.3126   27.5743    7.5529 C   0  0  0  0  0  0  0  0  0  0  0  0
    5.3185   24.1891    6.0518 C   0  0  0  0  0  0  0  0  0  0  0  0
    1.5689   26.6964    8.1534 C   0  0  0  0  0  0  0  0  0  0  0  0
    0.2478   26.4002    8.6030 C   0  0  0  0  0  0  0  0  0  0  0  0
    4.9930   25.2005    6.9879 C   0  0  0  0  0  0  0  0  0  0  0  0
   -0.4995   28.6332    7.8753 C   0  0  0  0  0  0  0  0  0  0  0  0
    5.2958   24.5311    4.6902 C   0  0  0  0  0  0  0  0  0  0  0  0
    1.0605   30.1899    6.8542 C   0  0  0  0  0  0  0  0  0  0  0  0
    1.8742   27.9742    7.5547 C   0  0  0  0  0  0  0  0  0  0  0  0
   -0.7986   27.3692    8.4678 C   0  0  0  0  0  0  0  0  0  0  0  0
    4.6619   26.5024    6.5513 C   0  0  0  0  0  0  0  0  0  0  0  0
    0.8228   28.9481    7.4180 C   0  0  0  0  0  0  0  0  0  0  0  0
   -0.3885   31.1751    7.9446 H   0  0  0  0  0  0  0  0  0  0  0  0
    0.5079   32.1783    6.8538 H   0  0  0  0  0  0  0  0  0  0  0  0
    3.1657   29.0240    6.4832 H   0  0  0  0  0  0  0  0  0  0  0  0
    4.4340   27.6720    4.8421 H   0  0  0  0  0  0  0  0  0  0  0  0
    4.1705   27.1561    8.4500 H   0  0  0  0  0  0  0  0  0  0  0  0
    5.0622   28.2340    7.6075 H   0  0  0  0  0  0  0  0  0  0  0  0
    5.5559   23.2645    6.3497 H   0  0  0  0  0  0  0  0  0  0  0  0
    2.2909   26.0119    8.2540 H   0  0  0  0  0  0  0  0  0  0  0  0
    0.0510   25.5106    9.0151 H   0  0  0  0  0  0  0  0  0  0  0  0
    4.9977   24.9914    7.9658 H   0  0  0  0  0  0  0  0  0  0  0  0
   -1.2266   29.3127    7.7771 H   0  0  0  0  0  0  0  0  0  0  0  0
  1 16  1  0  0  0  0
  2  8  1  0  0  0  0
  3  8  2  0  0  0  0
  4 17  2  0  0  0  0
  5 17  1  0  0  0  0
  6  9  2  0  0  0  0
  6 16  1  0  0  0  0
  7 10  1  0  0  0  0
  7 18  1  0  0  0  0
  8 19  1  0  0  0  0
  9 20  1  0  0  0  0
 10 20  1  0  0  0  0
 11 14  1  0  0  0  0
 11 16  2  0  0  0  0
 12 13  1  0  0  0  0
 12 18  2  0  0  0  0
 13 19  2  0  0  0  0
 14 20  2  0  0  0  0
 15 19  1  0  0  0  0
 15 21  2  0  0  0  0
 17 21  1  0  0  0  0
 18 21  1  0  0  0  0
  5 22  1  0  0  0  0
  5 23  1  0  0  0  0
  7 24  1  0  0  0  0
  9 25  1  0  0  0  0
 10 26  1  0  0  0  0
 10 27  1  0  0  0  0
 11 28  1  0  0  0  0
 12 29  1  0  0  0  0
 13 30  1  0  0  0  0
 14 31  1  0  0  0  0
 15 32  1  0  0  0  0
M  CHG  2   2  -1   8   1
M  END
$$$$
