X76_A_488
          05071912473D 1   1.00000     0.00000     0
            
 30 31  0  0  0  0            999 V2000
    1.9775   30.3107    6.0294 O   0  0  0  0  0  0  0  0  0  0  0  0
    0.3315   31.1482    7.2796 N   0  0  0  0  0  0  0  0  0  0  0  0
    5.0114   25.6749    4.3107 N   0  0  0  0  0  0  0  0  0  0  0  0
    3.3090   28.3210    7.2804 N   0  0  0  0  0  0  0  0  0  0  0  0
    5.3107   24.4207    4.7922 C   0  0  0  0  0  0  0  0  0  0  0  0
    5.3870   24.1185    6.1680 C   0  0  0  0  0  0  0  0  0  0  0  0
    0.5913   26.2994    8.7378 C   0  0  0  0  0  0  0  0  0  0  0  0
   -0.5042   27.1793    8.5401 C   0  0  0  0  0  0  0  0  0  0  0  0
    4.7793   26.6766    5.2302 C   0  0  0  0  0  0  0  0  0  0  0  0
    4.5688   27.5867    7.6104 C   0  0  0  0  0  0  0  0  0  0  0  0
    5.1418   25.1684    7.0906 C   0  0  0  0  0  0  0  0  0  0  0  0
    1.8903   26.6811    8.3127 C   0  0  0  0  0  0  0  0  0  0  0  0
   -0.3038   28.4439    7.9182 C   0  0  0  0  0  0  0  0  0  0  0  0
    1.1420   30.1057    6.8845 C   0  0  0  0  0  0  0  0  0  0  0  0
    4.8327   26.4711    6.6274 C   0  0  0  0  0  0  0  0  0  0  0  0
    2.1194   27.9603    7.6757 C   0  0  0  0  0  0  0  0  0  0  0  0
    0.9978   28.8543    7.4795 C   0  0  0  0  0  0  0  0  0  0  0  0
   -0.3641   31.0019    7.9830 H   0  0  0  0  0  0  0  0  0  0  0  0
    0.4391   32.0509    6.8630 H   0  0  0  0  0  0  0  0  0  0  0  0
    3.3834   29.1447    6.7184 H   0  0  0  0  0  0  0  0  0  0  0  0
    5.4825   23.6875    4.1342 H   0  0  0  0  0  0  0  0  0  0  0  0
    5.6066   23.1951    6.4827 H   0  0  0  0  0  0  0  0  0  0  0  0
    0.4483   25.4118    9.1758 H   0  0  0  0  0  0  0  0  0  0  0  0
   -1.4199   26.9101    8.8387 H   0  0  0  0  0  0  0  0  0  0  0  0
    4.5629   27.5924    4.8919 H   0  0  0  0  0  0  0  0  0  0  0  0
    4.4877   27.1985    8.5284 H   0  0  0  0  0  0  0  0  0  0  0  0
    5.3349   28.2289    7.5865 H   0  0  0  0  0  0  0  0  0  0  0  0
    5.1874   24.9878    8.0731 H   0  0  0  0  0  0  0  0  0  0  0  0
    2.6586   26.0571    8.4555 H   0  0  0  0  0  0  0  0  0  0  0  0
   -1.0834   29.0559    7.7853 H   0  0  0  0  0  0  0  0  0  0  0  0
  1 14  2  0  0  0  0
  2 14  1  0  0  0  0
  3  5  2  0  0  0  0
  3  9  1  0  0  0  0
  4 10  1  0  0  0  0
  4 16  1  0  0  0  0
  5  6  1  0  0  0  0
  6 11  2  0  0  0  0
  7  8  2  0  0  0  0
  7 12  1  0  0  0  0
  8 13  1  0  0  0  0
  9 15  2  0  0  0  0
 10 15  1  0  0  0  0
 11 15  1  0  0  0  0
 12 16  2  0  0  0  0
 13 17  2  0  0  0  0
 14 17  1  0  0  0  0
 16 17  1  0  0  0  0
  2 18  1  0  0  0  0
  2 19  1  0  0  0  0
  4 20  1  0  0  0  0
  5 21  1  0  0  0  0
  6 22  1  0  0  0  0
  7 23  1  0  0  0  0
  8 24  1  0  0  0  0
  9 25  1  0  0  0  0
 10 26  1  0  0  0  0
 10 27  1  0  0  0  0
 11 28  1  0  0  0  0
 12 29  1  0  0  0  0
 13 30  1  0  0  0  0
M  END
$$$$
