XA0_A_782
          05071912473D 1   1.00000     0.00000     0
            
 33 34  0  0  0  0            999 V2000
   -0.4148   24.8563    8.6276 Cl  0  0  0  0  0  0  0  0  0  0  0  0
    4.5544   25.7272    2.7371 F   0  0  0  0  0  0  0  0  0  0  0  0
    5.0897   22.7205    6.3676 F   0  0  0  0  0  0  0  0  0  0  0  0
    5.0779   23.1988    3.6556 F   0  0  0  0  0  0  0  0  0  0  0  0
   -3.2337   28.0622    8.0987 O   0  5  0  0  0  0  0  0  0  0  0  0
   -2.4986   26.5360    9.6057 O   0  0  0  0  0  0  0  0  0  0  0  0
    1.9310   30.5483    6.0555 O   0  0  0  0  0  0  0  0  0  0  0  0
    0.3522   31.4775    7.3342 N   0  0  0  0  0  0  0  0  0  0  0  0
    2.8738   28.2310    6.8483 N   0  0  0  0  0  0  0  0  0  0  0  0
   -2.2344   27.3727    8.6159 N   0  3  0  0  0  0  0  0  0  0  0  0
    4.0484   27.4347    7.3124 C   0  0  0  0  0  0  0  0  0  0  0  0
    1.2507   26.7331    7.6929 C   0  0  0  0  0  0  0  0  0  0  0  0
    4.3174   26.5553    4.9394 C   0  0  0  0  0  0  0  0  0  0  0  0
    4.5926   24.9985    6.8257 C   0  0  0  0  0  0  0  0  0  0  0  0
   -0.6266   28.8541    7.7582 C   0  0  0  0  0  0  0  0  0  0  0  0
   -0.0545   26.4760    8.1485 C   0  0  0  0  0  0  0  0  0  0  0  0
    1.0390   30.3842    6.8655 C   0  0  0  0  0  0  0  0  0  0  0  0
    4.5711   25.4957    4.0293 C   0  0  0  0  0  0  0  0  0  0  0  0
    4.8484   23.9369    5.9127 C   0  0  0  0  0  0  0  0  0  0  0  0
    4.8392   24.1864    4.5131 C   0  0  0  0  0  0  0  0  0  0  0  0
    1.6587   28.0295    7.2633 C   0  0  0  0  0  0  0  0  0  0  0  0
   -1.0260   27.5470    8.1965 C   0  0  0  0  0  0  0  0  0  0  0  0
    4.3286   26.3097    6.3390 C   0  0  0  0  0  0  0  0  0  0  0  0
    0.7034   29.1087    7.2879 C   0  0  0  0  0  0  0  0  0  0  0  0
   -0.3838   31.3577    8.0005 H   0  0  0  0  0  0  0  0  0  0  0  0
    0.5882   32.3933    7.0091 H   0  0  0  0  0  0  0  0  0  0  0  0
    3.0306   28.9594    6.1814 H   0  0  0  0  0  0  0  0  0  0  0  0
    3.8525   27.0508    8.2147 H   0  0  0  0  0  0  0  0  0  0  0  0
    4.8499   28.0299    7.3702 H   0  0  0  0  0  0  0  0  0  0  0  0
    1.9126   25.9839    7.6695 H   0  0  0  0  0  0  0  0  0  0  0  0
    4.1306   27.4754    4.5951 H   0  0  0  0  0  0  0  0  0  0  0  0
    4.5984   24.8230    7.8101 H   0  0  0  0  0  0  0  0  0  0  0  0
   -1.2896   29.6023    7.7813 H   0  0  0  0  0  0  0  0  0  0  0  0
  1 16  1  0  0  0  0
  2 18  1  0  0  0  0
  3 19  1  0  0  0  0
  4 20  1  0  0  0  0
  5 10  1  0  0  0  0
  6 10  2  0  0  0  0
  7 17  2  0  0  0  0
  8 17  1  0  0  0  0
  9 11  1  0  0  0  0
  9 21  1  0  0  0  0
 10 22  1  0  0  0  0
 11 23  1  0  0  0  0
 12 16  2  0  0  0  0
 12 21  1  0  0  0  0
 13 18  2  0  0  0  0
 13 23  1  0  0  0  0
 14 19  1  0  0  0  0
 14 23  2  0  0  0  0
 15 22  2  0  0  0  0
 15 24  1  0  0  0  0
 16 22  1  0  0  0  0
 17 24  1  0  0  0  0
 18 20  1  0  0  0  0
 19 20  2  0  0  0  0
 21 24  2  0  0  0  0
  8 25  1  0  0  0  0
  8 26  1  0  0  0  0
  9 27  1  0  0  0  0
 11 28  1  0  0  0  0
 11 29  1  0  0  0  0
 12 30  1  0  0  0  0
 13 31  1  0  0  0  0
 14 32  1  0  0  0  0
 15 33  1  0  0  0  0
M  CHG  2   5  -1  10   1
M  END
$$$$
