X84_A_778
          05071912473D 1   1.00000     0.00000     0
            
 44 45  0  0  0  0            999 V2000
   -2.2105   26.0204    9.4909 O   0  5  0  0  0  0  0  0  0  0  0  0
   -2.9013   27.9631    8.5801 O   0  0  0  0  0  0  0  0  0  0  0  0
    3.1306   22.1676    8.2807 O   0  0  0  0  0  0  0  0  0  0  0  0
    1.9898   30.3854    6.0265 O   0  0  0  0  0  0  0  0  0  0  0  0
    0.2994   31.2771    7.1659 N   0  0  0  0  0  0  0  0  0  0  0  0
    5.3290   24.1570    6.1461 N   0  0  0  0  0  0  0  0  0  0  0  0
    0.1586   25.2897    9.1870 N   0  0  0  0  0  0  0  0  0  0  0  0
    3.1912   28.3484    7.1968 N   0  0  0  0  0  0  0  0  0  0  0  0
   -1.9185   27.1228    8.8457 N   0  3  0  0  0  0  0  0  0  0  0  0
    2.9056   23.0111    9.3846 C   0  0  0  0  0  0  0  0  0  0  0  0
    5.1715   24.3742    4.7923 C   0  0  0  0  0  0  0  0  0  0  0  0
    1.1493   24.6295   10.0781 C   0  0  0  0  0  0  0  0  0  0  0  0
    5.0813   25.2127    6.9990 C   0  0  0  0  0  0  0  0  0  0  0  0
    4.4250   27.5968    7.5470 C   0  0  0  0  0  0  0  0  0  0  0  0
    1.4106   23.2163    9.5687 C   0  0  0  0  0  0  0  0  0  0  0  0
    4.7773   25.6093    4.2515 C   0  0  0  0  0  0  0  0  0  0  0  0
    4.5335   26.6737    5.1503 C   0  0  0  0  0  0  0  0  0  0  0  0
    1.7008   26.7782    8.2073 C   0  0  0  0  0  0  0  0  0  0  0  0
   -0.4140   28.6429    7.8570 C   0  0  0  0  0  0  0  0  0  0  0  0
    1.1069   30.2187    6.8347 C   0  0  0  0  0  0  0  0  0  0  0  0
    0.3785   26.4372    8.6448 C   0  0  0  0  0  0  0  0  0  0  0  0
    1.9838   28.0420    7.5944 C   0  0  0  0  0  0  0  0  0  0  0  0
   -0.7000   27.3840    8.4686 C   0  0  0  0  0  0  0  0  0  0  0  0
    4.6855   26.4816    6.5539 C   0  0  0  0  0  0  0  0  0  0  0  0
    0.9053   28.9848    7.4183 C   0  0  0  0  0  0  0  0  0  0  0  0
    4.1139   22.0325    8.1594 H   0  0  0  0  0  0  0  0  0  0  0  0
   -0.4357   31.1556    7.8329 H   0  0  0  0  0  0  0  0  0  0  0  0
    0.4458   32.1701    6.7402 H   0  0  0  0  0  0  0  0  0  0  0  0
   -0.7083   24.8268    9.0023 H   0  0  0  0  0  0  0  0  0  0  0  0
    3.2927   29.1522    6.6107 H   0  0  0  0  0  0  0  0  0  0  0  0
    3.3462   23.8944    9.2245 H   0  0  0  0  0  0  0  0  0  0  0  0
    3.2885   22.5920   10.2079 H   0  0  0  0  0  0  0  0  0  0  0  0
    5.3465   23.6149    4.1656 H   0  0  0  0  0  0  0  0  0  0  0  0
    0.7875   24.5887   11.0095 H   0  0  0  0  0  0  0  0  0  0  0  0
    2.0029   25.1504   10.0746 H   0  0  0  0  0  0  0  0  0  0  0  0
    5.1893   25.0655    7.9822 H   0  0  0  0  0  0  0  0  0  0  0  0
    4.3193   27.2029    8.4601 H   0  0  0  0  0  0  0  0  0  0  0  0
    5.2026   28.2256    7.5433 H   0  0  0  0  0  0  0  0  0  0  0  0
    1.0625   22.5535   10.2317 H   0  0  0  0  0  0  0  0  0  0  0  0
    0.9462   23.0868    8.6926 H   0  0  0  0  0  0  0  0  0  0  0  0
    4.6727   25.7317    3.2645 H   0  0  0  0  0  0  0  0  0  0  0  0
    4.2526   27.5667    4.7985 H   0  0  0  0  0  0  0  0  0  0  0  0
    2.4423   26.1190    8.3328 H   0  0  0  0  0  0  0  0  0  0  0  0
   -1.1549   29.3028    7.7319 H   0  0  0  0  0  0  0  0  0  0  0  0
  1  9  1  0  0  0  0
  2  9  2  0  0  0  0
  3 10  1  0  0  0  0
  4 20  2  0  0  0  0
  5 20  1  0  0  0  0
  6 11  2  0  0  0  0
  6 13  1  0  0  0  0
  7 12  1  0  0  0  0
  7 21  1  0  0  0  0
  8 14  1  0  0  0  0
  8 22  1  0  0  0  0
  9 23  1  0  0  0  0
 10 15  1  0  0  0  0
 11 16  1  0  0  0  0
 12 15  1  0  0  0  0
 13 24  2  0  0  0  0
 14 24  1  0  0  0  0
 16 17  2  0  0  0  0
 17 24  1  0  0  0  0
 18 21  2  0  0  0  0
 18 22  1  0  0  0  0
 19 23  2  0  0  0  0
 19 25  1  0  0  0  0
 20 25  1  0  0  0  0
 21 23  1  0  0  0  0
 22 25  2  0  0  0  0
  3 26  1  0  0  0  0
  5 27  1  0  0  0  0
  5 28  1  0  0  0  0
  7 29  1  0  0  0  0
  8 30  1  0  0  0  0
 10 31  1  0  0  0  0
 10 32  1  0  0  0  0
 11 33  1  0  0  0  0
 12 34  1  0  0  0  0
 12 35  1  0  0  0  0
 13 36  1  0  0  0  0
 14 37  1  0  0  0  0
 14 38  1  0  0  0  0
 15 39  1  0  0  0  0
 15 40  1  0  0  0  0
 16 41  1  0  0  0  0
 17 42  1  0  0  0  0
 18 43  1  0  0  0  0
 19 44  1  0  0  0  0
M  CHG  2   1  -1   9   1
M  END
$$$$
