X86_A_800
          05071912473D 1   1.00000     0.00000     0
            
 47 48  0  0  0  0            999 V2000
   -1.5717   25.5221    9.7559 O   0  5  0  0  0  0  0  0  0  0  0  0
   -2.4926   27.4051    8.9499 O   0  0  0  0  0  0  0  0  0  0  0  0
    2.0297   30.3426    6.1580 O   0  0  0  0  0  0  0  0  0  0  0  0
   -0.5519   22.5920   10.0733 O   0  0  0  0  0  0  0  0  0  0  0  0
    0.1720   30.9998    7.2041 N   0  0  0  0  0  0  0  0  0  0  0  0
    4.7850   25.6214    4.3685 N   0  0  0  0  0  0  0  0  0  0  0  0
    0.8320   25.1794    9.6282 N   0  0  0  0  0  0  0  0  0  0  0  0
    3.4420   28.4887    7.3856 N   0  0  0  0  0  0  0  0  0  0  0  0
   -1.4174   26.6760    9.1635 N   0  3  0  0  0  0  0  0  0  0  0  0
   -1.3504   22.2218    8.9882 C   0  0  0  0  0  0  0  0  0  0  0  0
    0.7686   22.1419   10.1594 C   0  0  0  0  0  0  0  0  0  0  0  0
    5.0932   24.3978    4.9001 C   0  0  0  0  0  0  0  0  0  0  0  0
    1.9985   24.2799    9.8559 C   0  0  0  0  0  0  0  0  0  0  0  0
    4.6780   26.6866    5.2246 C   0  0  0  0  0  0  0  0  0  0  0  0
    4.7446   27.7581    7.5597 C   0  0  0  0  0  0  0  0  0  0  0  0
    1.6081   23.2020   10.8637 C   0  0  0  0  0  0  0  0  0  0  0  0
    5.3021   24.1809    6.2729 C   0  0  0  0  0  0  0  0  0  0  0  0
    5.1848   25.2872    7.1325 C   0  0  0  0  0  0  0  0  0  0  0  0
    2.1641   26.8010    8.5218 C   0  0  0  0  0  0  0  0  0  0  0  0
   -0.1568   28.3399    8.0685 C   0  0  0  0  0  0  0  0  0  0  0  0
    1.1365   30.0610    6.9439 C   0  0  0  0  0  0  0  0  0  0  0  0
    0.9148   26.3139    8.9939 C   0  0  0  0  0  0  0  0  0  0  0  0
    2.2808   28.0585    7.8159 C   0  0  0  0  0  0  0  0  0  0  0  0
   -0.2631   27.0841    8.7627 C   0  0  0  0  0  0  0  0  0  0  0  0
    4.8708   26.5664    6.6210 C   0  0  0  0  0  0  0  0  0  0  0  0
    1.0995   28.8381    7.5953 C   0  0  0  0  0  0  0  0  0  0  0  0
   -0.5684   30.7921    7.8434 H   0  0  0  0  0  0  0  0  0  0  0  0
    0.2089   31.8923    6.7546 H   0  0  0  0  0  0  0  0  0  0  0  0
   -0.0602   24.8971    9.9805 H   0  0  0  0  0  0  0  0  0  0  0  0
    3.4629   29.3665    6.9069 H   0  0  0  0  0  0  0  0  0  0  0  0
   -2.2580   22.6298    9.0877 H   0  0  0  0  0  0  0  0  0  0  0  0
   -0.9308   22.5450    8.1400 H   0  0  0  0  0  0  0  0  0  0  0  0
   -1.4340   21.2257    8.9603 H   0  0  0  0  0  0  0  0  0  0  0  0
    1.1298   21.9839    9.2404 H   0  0  0  0  0  0  0  0  0  0  0  0
    0.7990   21.2890   10.6807 H   0  0  0  0  0  0  0  0  0  0  0  0
    5.1738   23.6179    4.2794 H   0  0  0  0  0  0  0  0  0  0  0  0
    2.7662   24.8112   10.2142 H   0  0  0  0  0  0  0  0  0  0  0  0
    2.2642   23.8509    8.9926 H   0  0  0  0  0  0  0  0  0  0  0  0
    4.4546   27.5851    4.8468 H   0  0  0  0  0  0  0  0  0  0  0  0
    4.8064   27.4319    8.5030 H   0  0  0  0  0  0  0  0  0  0  0  0
    5.4957   28.3924    7.3764 H   0  0  0  0  0  0  0  0  0  0  0  0
    2.4333   22.7804   11.2397 H   0  0  0  0  0  0  0  0  0  0  0  0
    1.0765   23.6127   11.6044 H   0  0  0  0  0  0  0  0  0  0  0  0
    5.5260   23.2723    6.6256 H   0  0  0  0  0  0  0  0  0  0  0  0
    5.3250   25.1676    8.1154 H   0  0  0  0  0  0  0  0  0  0  0  0
    2.9880   26.2576    8.6826 H   0  0  0  0  0  0  0  0  0  0  0  0
   -0.9837   28.8801    7.9121 H   0  0  0  0  0  0  0  0  0  0  0  0
  1  9  1  0  0  0  0
  2  9  2  0  0  0  0
  3 21  2  0  0  0  0
  4 10  1  0  0  0  0
  4 11  1  0  0  0  0
  5 21  1  0  0  0  0
  6 12  2  0  0  0  0
  6 14  1  0  0  0  0
  7 13  1  0  0  0  0
  7 22  1  0  0  0  0
  8 15  1  0  0  0  0
  8 23  1  0  0  0  0
  9 24  1  0  0  0  0
 11 16  1  0  0  0  0
 12 17  1  0  0  0  0
 13 16  1  0  0  0  0
 14 25  2  0  0  0  0
 15 25  1  0  0  0  0
 17 18  2  0  0  0  0
 18 25  1  0  0  0  0
 19 22  2  0  0  0  0
 19 23  1  0  0  0  0
 20 24  2  0  0  0  0
 20 26  1  0  0  0  0
 21 26  1  0  0  0  0
 22 24  1  0  0  0  0
 23 26  2  0  0  0  0
  5 27  1  0  0  0  0
  5 28  1  0  0  0  0
  7 29  1  0  0  0  0
  8 30  1  0  0  0  0
 10 31  1  0  0  0  0
 10 32  1  0  0  0  0
 10 33  1  0  0  0  0
 11 34  1  0  0  0  0
 11 35  1  0  0  0  0
 12 36  1  0  0  0  0
 13 37  1  0  0  0  0
 13 38  1  0  0  0  0
 14 39  1  0  0  0  0
 15 40  1  0  0  0  0
 15 41  1  0  0  0  0
 16 42  1  0  0  0  0
 16 43  1  0  0  0  0
 17 44  1  0  0  0  0
 18 45  1  0  0  0  0
 19 46  1  0  0  0  0
 20 47  1  0  0  0  0
M  CHG  2   1  -1   9   1
M  END
$$$$
