X87_A_920
          05071912473D 1   1.00000     0.00000     0
            
 45 46  0  0  0  0            999 V2000
   -1.7616   26.1976   10.2265 O   0  5  0  0  0  0  0  0  0  0  0  0
   -2.6842   27.4103    8.5452 O   0  0  0  0  0  0  0  0  0  0  0  0
    2.0097   30.2961    6.0484 O   0  0  0  0  0  0  0  0  0  0  0  0
    0.5348   21.1755   11.2588 N   0  0  0  0  0  0  0  0  0  0  0  0
    0.3903   31.1896    7.2792 N   0  0  0  0  0  0  0  0  0  0  0  0
    5.2130   24.0356    6.1645 N   0  0  0  0  0  0  0  0  0  0  0  0
    0.5332   25.2348    9.4936 N   0  0  0  0  0  0  0  0  0  0  0  0
    3.3464   28.3358    7.2709 N   0  0  0  0  0  0  0  0  0  0  0  0
   -1.6081   26.9585    9.1596 N   0  3  0  0  0  0  0  0  0  0  0  0
    0.7157   22.5904   11.4638 C   0  0  0  0  0  0  0  0  0  0  0  0
    5.0335   24.2481    4.8100 C   0  0  0  0  0  0  0  0  0  0  0  0
    1.5534   24.6920   10.4260 C   0  0  0  0  0  0  0  0  0  0  0  0
    5.0650   25.1159    7.0065 C   0  0  0  0  0  0  0  0  0  0  0  0
    4.5935   27.5546    7.5338 C   0  0  0  0  0  0  0  0  0  0  0  0
    1.5668   23.1701   10.3378 C   0  0  0  0  0  0  0  0  0  0  0  0
    4.7109   25.5032    4.2633 C   0  0  0  0  0  0  0  0  0  0  0  0
    4.5666   26.5966    5.1540 C   0  0  0  0  0  0  0  0  0  0  0  0
    1.9550   26.7532    8.3980 C   0  0  0  0  0  0  0  0  0  0  0  0
   -0.2394   28.5166    8.0565 C   0  0  0  0  0  0  0  0  0  0  0  0
    1.1833   30.1311    6.9175 C   0  0  0  0  0  0  0  0  0  0  0  0
    0.6798   26.3739    8.8954 C   0  0  0  0  0  0  0  0  0  0  0  0
    2.1626   28.0068    7.7245 C   0  0  0  0  0  0  0  0  0  0  0  0
   -0.4378   27.2636    8.7254 C   0  0  0  0  0  0  0  0  0  0  0  0
    4.7445   26.4100    6.5514 C   0  0  0  0  0  0  0  0  0  0  0  0
    1.0471   28.9014    7.5543 C   0  0  0  0  0  0  0  0  0  0  0  0
   -0.0233   20.8002   11.9988 H   0  0  0  0  0  0  0  0  0  0  0  0
    0.0756   21.0215   10.3839 H   0  0  0  0  0  0  0  0  0  0  0  0
   -0.2991   31.0764    7.9948 H   0  0  0  0  0  0  0  0  0  0  0  0
    0.5013   32.0749    6.8275 H   0  0  0  0  0  0  0  0  0  0  0  0
   -0.2956   24.7024    9.3217 H   0  0  0  0  0  0  0  0  0  0  0  0
    3.4207   29.1624    6.7129 H   0  0  0  0  0  0  0  0  0  0  0  0
    1.1743   22.7433   12.3392 H   0  0  0  0  0  0  0  0  0  0  0  0
   -0.1767   23.0417   11.4717 H   0  0  0  0  0  0  0  0  0  0  0  0
    5.1381   23.4715    4.1887 H   0  0  0  0  0  0  0  0  0  0  0  0
    1.3313   24.9695   11.3607 H   0  0  0  0  0  0  0  0  0  0  0  0
    2.4543   25.0480   10.1778 H   0  0  0  0  0  0  0  0  0  0  0  0
    5.1911   24.9745    7.9884 H   0  0  0  0  0  0  0  0  0  0  0  0
    4.5562   27.1844    8.4619 H   0  0  0  0  0  0  0  0  0  0  0  0
    5.3827   28.1628    7.4489 H   0  0  0  0  0  0  0  0  0  0  0  0
    1.1931   22.8836    9.4556 H   0  0  0  0  0  0  0  0  0  0  0  0
    2.5064   22.8390   10.4252 H   0  0  0  0  0  0  0  0  0  0  0  0
    4.5873   25.6206    3.2779 H   0  0  0  0  0  0  0  0  0  0  0  0
    4.3388   27.5027    4.7976 H   0  0  0  0  0  0  0  0  0  0  0  0
    2.7291   26.1318    8.5192 H   0  0  0  0  0  0  0  0  0  0  0  0
   -1.0157   29.1357    7.9378 H   0  0  0  0  0  0  0  0  0  0  0  0
  1  9  1  0  0  0  0
  2  9  2  0  0  0  0
  3 20  2  0  0  0  0
  4 10  1  0  0  0  0
  5 20  1  0  0  0  0
  6 11  2  0  0  0  0
  6 13  1  0  0  0  0
  7 12  1  0  0  0  0
  7 21  1  0  0  0  0
  8 14  1  0  0  0  0
  8 22  1  0  0  0  0
  9 23  1  0  0  0  0
 10 15  1  0  0  0  0
 11 16  1  0  0  0  0
 12 15  1  0  0  0  0
 13 24  2  0  0  0  0
 14 24  1  0  0  0  0
 16 17  2  0  0  0  0
 17 24  1  0  0  0  0
 18 21  2  0  0  0  0
 18 22  1  0  0  0  0
 19 23  2  0  0  0  0
 19 25  1  0  0  0  0
 20 25  1  0  0  0  0
 21 23  1  0  0  0  0
 22 25  2  0  0  0  0
  4 26  1  0  0  0  0
  4 27  1  0  0  0  0
  5 28  1  0  0  0  0
  5 29  1  0  0  0  0
  7 30  1  0  0  0  0
  8 31  1  0  0  0  0
 10 32  1  0  0  0  0
 10 33  1  0  0  0  0
 11 34  1  0  0  0  0
 12 35  1  0  0  0  0
 12 36  1  0  0  0  0
 13 37  1  0  0  0  0
 14 38  1  0  0  0  0
 14 39  1  0  0  0  0
 15 40  1  0  0  0  0
 15 41  1  0  0  0  0
 16 42  1  0  0  0  0
 17 43  1  0  0  0  0
 18 44  1  0  0  0  0
 19 45  1  0  0  0  0
M  CHG  2   1  -1   9   1
M  END
$$$$
