X9I_A_505
          05071912473D 1   1.00000     0.00000     0
            
 36 37  0  0  0  0            999 V2000
   -2.6296   26.0450    9.5376 O   0  5  0  0  0  0  0  0  0  0  0  0
   -3.2916   28.0977    8.7450 O   0  0  0  0  0  0  0  0  0  0  0  0
    5.0801   21.9462    4.4177 O   0  0  0  0  0  0  0  0  0  0  0  0
    5.0068   23.2751    2.6652 O   0  0  0  0  0  0  0  0  0  0  0  0
    1.8416   30.4979    5.9861 O   0  0  0  0  0  0  0  0  0  0  0  0
    0.1373   31.4358    7.2655 N   0  0  0  0  0  0  0  0  0  0  0  0
    2.9745   28.3775    7.3524 N   0  0  0  0  0  0  0  0  0  0  0  0
   -2.3126   27.2042    8.9468 N   0  3  0  0  0  0  0  0  0  0  0  0
    4.1927   27.5858    7.5448 C   0  0  0  0  0  0  0  0  0  0  0  0
    1.3729   26.8026    8.3740 C   0  0  0  0  0  0  0  0  0  0  0  0
    0.0379   26.5255    8.7678 C   0  0  0  0  0  0  0  0  0  0  0  0
    4.5208   25.1327    7.0739 C   0  0  0  0  0  0  0  0  0  0  0  0
    4.4213   26.6926    5.1659 C   0  0  0  0  0  0  0  0  0  0  0  0
    4.7074   24.0484    6.1824 C   0  0  0  0  0  0  0  0  0  0  0  0
    4.6093   25.6101    4.2634 C   0  0  0  0  0  0  0  0  0  0  0  0
   -0.6842   28.7204    7.9256 C   0  0  0  0  0  0  0  0  0  0  0  0
    4.9603   23.0878    3.8980 C   0  0  0  0  0  0  0  0  0  0  0  0
    0.8709   30.3595    6.8938 C   0  0  0  0  0  0  0  0  0  0  0  0
    1.7304   28.0702    7.7333 C   0  0  0  0  0  0  0  0  0  0  0  0
   -1.0055   27.4750    8.5532 C   0  0  0  0  0  0  0  0  0  0  0  0
    4.3768   26.4556    6.5762 C   0  0  0  0  0  0  0  0  0  0  0  0
    4.7575   24.2603    4.7639 C   0  0  0  0  0  0  0  0  0  0  0  0
    0.6500   29.0292    7.5171 C   0  0  0  0  0  0  0  0  0  0  0  0
    5.0364   21.8421    5.4113 H   0  0  0  0  0  0  0  0  0  0  0  0
   -0.5898   31.3349    7.9446 H   0  0  0  0  0  0  0  0  0  0  0  0
    0.3228   32.3312    6.8608 H   0  0  0  0  0  0  0  0  0  0  0  0
    3.0873   29.2517    6.8801 H   0  0  0  0  0  0  0  0  0  0  0  0
    4.1701   27.2020    8.4680 H   0  0  0  0  0  0  0  0  0  0  0  0
    4.9777   28.1991    7.4580 H   0  0  0  0  0  0  0  0  0  0  0  0
    2.0839   26.1187    8.5374 H   0  0  0  0  0  0  0  0  0  0  0  0
   -0.1751   25.6506    9.2026 H   0  0  0  0  0  0  0  0  0  0  0  0
    4.4901   24.9663    8.0595 H   0  0  0  0  0  0  0  0  0  0  0  0
    4.3197   27.6230    4.8137 H   0  0  0  0  0  0  0  0  0  0  0  0
    4.8056   23.1222    6.5463 H   0  0  0  0  0  0  0  0  0  0  0  0
    4.6392   25.7821    3.2787 H   0  0  0  0  0  0  0  0  0  0  0  0
   -1.4102   29.3901    7.7693 H   0  0  0  0  0  0  0  0  0  0  0  0
  1  8  1  0  0  0  0
  2  8  2  0  0  0  0
  3 17  1  0  0  0  0
  4 17  2  0  0  0  0
  5 18  2  0  0  0  0
  6 18  1  0  0  0  0
  7  9  1  0  0  0  0
  7 19  1  0  0  0  0
  8 20  1  0  0  0  0
  9 21  1  0  0  0  0
 10 11  1  0  0  0  0
 10 19  2  0  0  0  0
 11 20  2  0  0  0  0
 12 14  1  0  0  0  0
 12 21  2  0  0  0  0
 13 15  2  0  0  0  0
 13 21  1  0  0  0  0
 14 22  2  0  0  0  0
 15 22  1  0  0  0  0
 16 20  1  0  0  0  0
 16 23  2  0  0  0  0
 17 22  1  0  0  0  0
 18 23  1  0  0  0  0
 19 23  1  0  0  0  0
  3 24  1  0  0  0  0
  6 25  1  0  0  0  0
  6 26  1  0  0  0  0
  7 27  1  0  0  0  0
  9 28  1  0  0  0  0
  9 29  1  0  0  0  0
 10 30  1  0  0  0  0
 11 31  1  0  0  0  0
 12 32  1  0  0  0  0
 13 33  1  0  0  0  0
 14 34  1  0  0  0  0
 15 35  1  0  0  0  0
 16 36  1  0  0  0  0
M  CHG  2   1  -1   8   1
M  END
$$$$
