X96_A_523
          05071912473D 1   1.00000     0.00000     0
            
 38 39  0  0  0  0            999 V2000
   -2.2003   25.5770    9.3915 O   0  5  0  0  0  0  0  0  0  0  0  0
   -2.9855   27.6187    8.7068 O   0  0  0  0  0  0  0  0  0  0  0  0
    1.9643   30.4457    6.0026 O   0  0  0  0  0  0  0  0  0  0  0  0
    6.8496   23.2422    3.1863 N   0  0  0  0  0  0  0  0  0  0  0  0
    0.2190   31.2074    7.3104 N   0  0  0  0  0  0  0  0  0  0  0  0
    3.2469   28.2861    7.2999 N   0  0  0  0  0  0  0  0  0  0  0  0
   -1.9572   26.7801    8.8553 N   0  3  0  0  0  0  0  0  0  0  0  0
    5.4261   23.4706    3.4410 C   0  0  0  0  0  0  0  0  0  0  0  0
    4.5123   27.5212    7.4488 C   0  0  0  0  0  0  0  0  0  0  0  0
    1.7302   26.6132    8.2495 C   0  0  0  0  0  0  0  0  0  0  0  0
    0.4200   26.2512    8.6326 C   0  0  0  0  0  0  0  0  0  0  0  0
    5.4297   24.1935    5.7524 C   0  0  0  0  0  0  0  0  0  0  0  0
    4.7305   25.7900    4.0029 C   0  0  0  0  0  0  0  0  0  0  0  0
    5.2066   25.1849    6.7391 C   0  0  0  0  0  0  0  0  0  0  0  0
    4.5081   26.7805    4.9967 C   0  0  0  0  0  0  0  0  0  0  0  0
   -0.4204   28.4274    7.8951 C   0  0  0  0  0  0  0  0  0  0  0  0
    1.0258   30.2004    6.9140 C   0  0  0  0  0  0  0  0  0  0  0  0
    2.0215   27.9164    7.6645 C   0  0  0  0  0  0  0  0  0  0  0  0
   -0.6719   27.1453    8.4671 C   0  0  0  0  0  0  0  0  0  0  0  0
    5.1957   24.4755    4.3650 C   0  0  0  0  0  0  0  0  0  0  0  0
    4.7424   26.4873    6.3734 C   0  0  0  0  0  0  0  0  0  0  0  0
    0.8950   28.8268    7.4912 C   0  0  0  0  0  0  0  0  0  0  0  0
    6.9546   22.5091    2.5143 H   0  0  0  0  0  0  0  0  0  0  0  0
    7.2637   24.0807    2.8323 H   0  0  0  0  0  0  0  0  0  0  0  0
   -0.4910   31.0396    7.9943 H   0  0  0  0  0  0  0  0  0  0  0  0
    0.3314   32.1213    6.9202 H   0  0  0  0  0  0  0  0  0  0  0  0
    3.3257   29.1875    6.8743 H   0  0  0  0  0  0  0  0  0  0  0  0
    5.0241   22.6224    3.7859 H   0  0  0  0  0  0  0  0  0  0  0  0
    4.9848   23.7225    2.5797 H   0  0  0  0  0  0  0  0  0  0  0  0
    4.4942   27.0547    8.3332 H   0  0  0  0  0  0  0  0  0  0  0  0
    5.2740   28.1688    7.4290 H   0  0  0  0  0  0  0  0  0  0  0  0
    2.4757   25.9602    8.3827 H   0  0  0  0  0  0  0  0  0  0  0  0
    0.2575   25.3473    9.0284 H   0  0  0  0  0  0  0  0  0  0  0  0
    5.7536   23.2877    6.0255 H   0  0  0  0  0  0  0  0  0  0  0  0
    4.5623   26.0075    3.0414 H   0  0  0  0  0  0  0  0  0  0  0  0
    5.3754   24.9720    7.7015 H   0  0  0  0  0  0  0  0  0  0  0  0
    4.1855   27.6887    4.7298 H   0  0  0  0  0  0  0  0  0  0  0  0
   -1.1818   29.0640    7.7728 H   0  0  0  0  0  0  0  0  0  0  0  0
  1  7  1  0  0  0  0
  2  7  2  0  0  0  0
  3 17  2  0  0  0  0
  4  8  1  0  0  0  0
  5 17  1  0  0  0  0
  6  9  1  0  0  0  0
  6 18  1  0  0  0  0
  7 19  1  0  0  0  0
  8 20  1  0  0  0  0
  9 21  1  0  0  0  0
 10 11  1  0  0  0  0
 10 18  2  0  0  0  0
 11 19  2  0  0  0  0
 12 14  2  0  0  0  0
 12 20  1  0  0  0  0
 13 15  1  0  0  0  0
 13 20  2  0  0  0  0
 14 21  1  0  0  0  0
 15 21  2  0  0  0  0
 16 19  1  0  0  0  0
 16 22  2  0  0  0  0
 17 22  1  0  0  0  0
 18 22  1  0  0  0  0
  4 23  1  0  0  0  0
  4 24  1  0  0  0  0
  5 25  1  0  0  0  0
  5 26  1  0  0  0  0
  6 27  1  0  0  0  0
  8 28  1  0  0  0  0
  8 29  1  0  0  0  0
  9 30  1  0  0  0  0
  9 31  1  0  0  0  0
 10 32  1  0  0  0  0
 11 33  1  0  0  0  0
 12 34  1  0  0  0  0
 13 35  1  0  0  0  0
 14 36  1  0  0  0  0
 15 37  1  0  0  0  0
 16 38  1  0  0  0  0
M  CHG  2   1  -1   7   1
M  END
$$$$
