Z02_A_490
          05071912473D 1   1.00000     0.00000     0
            
 32 33  0  0  0  0            999 V2000
   -2.6176   27.4784    8.8695 O   0  5  0  0  0  0  0  0  0  0  0  0
   -1.8549   25.3415    9.0491 O   0  0  0  0  0  0  0  0  0  0  0  0
    2.0079   30.3050    6.0310 O   0  0  0  0  0  0  0  0  0  0  0  0
    0.2990   30.9950    7.2732 N   0  0  0  0  0  0  0  0  0  0  0  0
    5.7842   25.3806    6.3114 N   0  0  0  0  0  0  0  0  0  0  0  0
    3.3279   28.1523    6.9542 N   0  0  0  0  0  0  0  0  0  0  0  0
   -1.6238   26.6006    8.7396 N   0  3  0  0  0  0  0  0  0  0  0  0
    6.1025   24.5384    5.2671 C   0  0  0  0  0  0  0  0  0  0  0  0
    4.5946   27.3782    7.2053 C   0  0  0  0  0  0  0  0  0  0  0  0
    5.6140   24.7136    3.9514 C   0  0  0  0  0  0  0  0  0  0  0  0
    4.7594   25.8123    3.7106 C   0  0  0  0  0  0  0  0  0  0  0  0
    4.4144   26.6984    4.7621 C   0  0  0  0  0  0  0  0  0  0  0  0
    1.9299   26.4616    7.9114 C   0  0  0  0  0  0  0  0  0  0  0  0
    0.6463   26.0623    8.3721 C   0  0  0  0  0  0  0  0  0  0  0  0
   -0.2501   28.2793    7.7939 C   0  0  0  0  0  0  0  0  0  0  0  0
    1.1547   30.0089    6.8322 C   0  0  0  0  0  0  0  0  0  0  0  0
    4.9466   26.4480    6.0488 C   0  0  0  0  0  0  0  0  0  0  0  0
    2.1503   27.7862    7.3790 C   0  0  0  0  0  0  0  0  0  0  0  0
   -0.4553   26.9647    8.3185 C   0  0  0  0  0  0  0  0  0  0  0  0
    1.0316   28.7103    7.3225 C   0  0  0  0  0  0  0  0  0  0  0  0
   -0.4164   30.7762    7.9367 H   0  0  0  0  0  0  0  0  0  0  0  0
    0.3936   31.9294    6.9297 H   0  0  0  0  0  0  0  0  0  0  0  0
    3.3936   29.0005    6.4287 H   0  0  0  0  0  0  0  0  0  0  0  0
    6.7093   23.7647    5.4492 H   0  0  0  0  0  0  0  0  0  0  0  0
    4.4774   26.8304    8.0337 H   0  0  0  0  0  0  0  0  0  0  0  0
    5.3456   28.0252    7.3370 H   0  0  0  0  0  0  0  0  0  0  0  0
    5.8647   24.0821    3.2176 H   0  0  0  0  0  0  0  0  0  0  0  0
    4.3951   25.9661    2.7921 H   0  0  0  0  0  0  0  0  0  0  0  0
    3.8114   27.4793    4.5987 H   0  0  0  0  0  0  0  0  0  0  0  0
    2.6921   25.8158    7.9564 H   0  0  0  0  0  0  0  0  0  0  0  0
    0.5150   25.1405    8.7368 H   0  0  0  0  0  0  0  0  0  0  0  0
   -1.0218   28.9141    7.7552 H   0  0  0  0  0  0  0  0  0  0  0  0
  1  7  1  0  0  0  0
  2  7  2  0  0  0  0
  3 16  2  0  0  0  0
  4 16  1  0  0  0  0
  5  8  2  0  0  0  0
  5 17  1  0  0  0  0
  6  9  1  0  0  0  0
  6 18  1  0  0  0  0
  7 19  1  0  0  0  0
  8 10  1  0  0  0  0
  9 17  1  0  0  0  0
 10 11  2  0  0  0  0
 11 12  1  0  0  0  0
 12 17  2  0  0  0  0
 13 14  1  0  0  0  0
 13 18  2  0  0  0  0
 14 19  2  0  0  0  0
 15 19  1  0  0  0  0
 15 20  2  0  0  0  0
 16 20  1  0  0  0  0
 18 20  1  0  0  0  0
  4 21  1  0  0  0  0
  4 22  1  0  0  0  0
  6 23  1  0  0  0  0
  8 24  1  0  0  0  0
  9 25  1  0  0  0  0
  9 26  1  0  0  0  0
 10 27  1  0  0  0  0
 11 28  1  0  0  0  0
 12 29  1  0  0  0  0
 13 30  1  0  0  0  0
 14 31  1  0  0  0  0
 15 32  1  0  0  0  0
M  CHG  2   1  -1   7   1
M  END
$$$$
