Z04_A_484
          05071912473D 1   1.00000     0.00000     0
            
 46 48  0  0  0  0            999 V2000
   -1.7265   25.8640   10.1405 O   0  5  0  0  0  0  0  0  0  0  0  0
   -2.6394   27.4936    8.8816 O   0  0  0  0  0  0  0  0  0  0  0  0
    1.8652   30.3703    6.1457 O   0  0  0  0  0  0  0  0  0  0  0  0
    0.7688   22.6080   10.6701 O   0  0  0  0  0  0  0  0  0  0  0  0
    0.1163   31.0745    7.3225 N   0  0  0  0  0  0  0  0  0  0  0  0
    5.3850   23.3545    4.3474 N   0  0  0  0  0  0  0  0  0  0  0  0
    4.9204   25.5529    4.4619 N   0  0  0  0  0  0  0  0  0  0  0  0
    5.3566   24.2152    6.4330 N   0  0  0  0  0  0  0  0  0  0  0  0
    3.2925   28.4129    7.2110 N   0  0  0  0  0  0  0  0  0  0  0  0
   -1.5623   26.8097    9.2565 N   0  3  0  0  0  0  0  0  0  0  0  0
    0.8114   25.0495    9.4291 N   0  0  0  0  0  0  0  0  0  0  0  0
    2.0367   23.2424   10.7144 C   0  0  0  0  0  0  0  0  0  0  0  0
    0.3323   22.5619    9.3283 C   0  0  0  0  0  0  0  0  0  0  0  0
    4.7413   26.6343    5.2691 C   0  0  0  0  0  0  0  0  0  0  0  0
    5.1662   25.3347    7.1963 C   0  0  0  0  0  0  0  0  0  0  0  0
    4.6263   27.8078    7.5341 C   0  0  0  0  0  0  0  0  0  0  0  0
    1.8224   24.7483   10.5011 C   0  0  0  0  0  0  0  0  0  0  0  0
   -0.1257   23.9718    8.9353 C   0  0  0  0  0  0  0  0  0  0  0  0
    2.0238   26.7246    8.3305 C   0  0  0  0  0  0  0  0  0  0  0  0
   -0.2465   28.3935    8.1387 C   0  0  0  0  0  0  0  0  0  0  0  0
    1.0298   30.1084    6.9871 C   0  0  0  0  0  0  0  0  0  0  0  0
    5.2202   24.3819    5.0846 C   0  0  0  0  0  0  0  0  0  0  0  0
    2.1483   28.0066    7.6957 C   0  0  0  0  0  0  0  0  0  0  0  0
    4.8523   26.5910    6.6641 C   0  0  0  0  0  0  0  0  0  0  0  0
   -0.3874   27.1164    8.7850 C   0  0  0  0  0  0  0  0  0  0  0  0
    0.7978   26.2464    8.8762 C   0  0  0  0  0  0  0  0  0  0  0  0
    0.9857   28.8488    7.5955 C   0  0  0  0  0  0  0  0  0  0  0  0
   -0.5821   30.8842    8.0124 H   0  0  0  0  0  0  0  0  0  0  0  0
    0.1484   31.9692    6.8771 H   0  0  0  0  0  0  0  0  0  0  0  0
    5.6068   22.4719    4.7620 H   0  0  0  0  0  0  0  0  0  0  0  0
    5.2926   23.4314    3.3546 H   0  0  0  0  0  0  0  0  0  0  0  0
    3.2773   29.1858    6.5767 H   0  0  0  0  0  0  0  0  0  0  0  0
    2.6240   22.8776    9.9919 H   0  0  0  0  0  0  0  0  0  0  0  0
    2.4647   23.0833   11.6040 H   0  0  0  0  0  0  0  0  0  0  0  0
   -0.4294   21.9200    9.2403 H   0  0  0  0  0  0  0  0  0  0  0  0
    1.0836   22.2708    8.7360 H   0  0  0  0  0  0  0  0  0  0  0  0
    4.5176   27.5099    4.8411 H   0  0  0  0  0  0  0  0  0  0  0  0
    5.2562   25.2510    8.1887 H   0  0  0  0  0  0  0  0  0  0  0  0
    4.6452   27.5374    8.4967 H   0  0  0  0  0  0  0  0  0  0  0  0
    5.3472   28.4791    7.3622 H   0  0  0  0  0  0  0  0  0  0  0  0
    1.5059   25.1504   11.3602 H   0  0  0  0  0  0  0  0  0  0  0  0
    2.6954   25.1612   10.2415 H   0  0  0  0  0  0  0  0  0  0  0  0
   -0.1768   24.0249    7.9380 H   0  0  0  0  0  0  0  0  0  0  0  0
   -1.0324   24.1335    9.3246 H   0  0  0  0  0  0  0  0  0  0  0  0
    2.8338   26.1414    8.3922 H   0  0  0  0  0  0  0  0  0  0  0  0
   -1.0490   28.9860    8.0685 H   0  0  0  0  0  0  0  0  0  0  0  0
  1 10  1  0  0  0  0
  2 10  2  0  0  0  0
  3 21  2  0  0  0  0
  4 12  1  0  0  0  0
  4 13  1  0  0  0  0
  5 21  1  0  0  0  0
  6 22  1  0  0  0  0
  7 14  1  0  0  0  0
  7 22  2  0  0  0  0
  8 15  2  0  0  0  0
  8 22  1  0  0  0  0
  9 16  1  0  0  0  0
  9 23  1  0  0  0  0
 10 25  1  0  0  0  0
 11 17  1  0  0  0  0
 11 18  1  0  0  0  0
 11 26  1  0  0  0  0
 12 17  1  0  0  0  0
 13 18  1  0  0  0  0
 14 24  2  0  0  0  0
 15 24  1  0  0  0  0
 16 24  1  0  0  0  0
 19 23  1  0  0  0  0
 19 26  2  0  0  0  0
 20 25  2  0  0  0  0
 20 27  1  0  0  0  0
 21 27  1  0  0  0  0
 23 27  2  0  0  0  0
 25 26  1  0  0  0  0
  5 28  1  0  0  0  0
  5 29  1  0  0  0  0
  6 30  1  0  0  0  0
  6 31  1  0  0  0  0
  9 32  1  0  0  0  0
 12 33  1  0  0  0  0
 12 34  1  0  0  0  0
 13 35  1  0  0  0  0
 13 36  1  0  0  0  0
 14 37  1  0  0  0  0
 15 38  1  0  0  0  0
 16 39  1  0  0  0  0
 16 40  1  0  0  0  0
 17 41  1  0  0  0  0
 17 42  1  0  0  0  0
 18 43  1  0  0  0  0
 18 44  1  0  0  0  0
 19 45  1  0  0  0  0
 20 46  1  0  0  0  0
M  CHG  2   1  -1  10   1
M  END
$$$$
