Z30_A_423
          05071912473D 1   1.00000     0.00000     0
            
 37 38  0  0  0  0            999 V2000
    2.7751   26.9957    7.2148 O   0  0  0  0  0  0  0  0  0  0  0  0
    4.7631   27.4055    5.4046 N   0  0  0  0  0  0  0  0  0  0  0  0
    4.1020   28.4879    6.0065 N   0  0  0  0  0  0  0  0  0  0  0  0
    1.1947   31.3737    7.0515 N   0  0  0  0  0  0  0  0  0  0  0  0
    2.2092   30.6246    6.6156 N   0  0  0  0  0  0  0  0  0  0  0  0
   -1.1510   27.5235   11.9095 C   0  0  0  0  0  0  0  0  0  0  0  0
   -1.3083   26.1074    9.8717 C   0  0  0  0  0  0  0  0  0  0  0  0
   -3.1285   27.7559   10.4504 C   0  0  0  0  0  0  0  0  0  0  0  0
   -0.9157   31.0546    8.4348 C   0  0  0  0  0  0  0  0  0  0  0  0
   -1.7067   29.9022    9.1340 C   0  0  0  0  0  0  0  0  0  0  0  0
    0.1336   28.1857    8.5187 C   0  0  0  0  0  0  0  0  0  0  0  0
    2.9905   28.2399    6.7560 C   0  0  0  0  0  0  0  0  0  0  0  0
    0.3561   30.6034    7.7636 C   0  0  0  0  0  0  0  0  0  0  0  0
    2.0306   29.3533    7.0537 C   0  0  0  0  0  0  0  0  0  0  0  0
    0.8404   29.3157    7.7961 C   0  0  0  0  0  0  0  0  0  0  0  0
   -0.8027   28.7187    9.6914 C   0  0  2  0  0  0  0  0  0  0  0  0
   -1.5928   27.5321   10.4354 C   0  0  0  0  0  0  0  0  0  0  0  0
    5.5534   27.7409    4.8919 H   0  0  0  0  0  0  0  0  0  0  0  0
    5.0703   26.7679    6.1111 H   0  0  0  0  0  0  0  0  0  0  0  0
    4.4395   29.4217    5.8879 H   0  0  0  0  0  0  0  0  0  0  0  0
    2.9743   30.9470    6.0583 H   0  0  0  0  0  0  0  0  0  0  0  0
   -1.3168   28.4236   12.3124 H   0  0  0  0  0  0  0  0  0  0  0  0
   -1.6732   26.8330   12.4099 H   0  0  0  0  0  0  0  0  0  0  0  0
   -0.1759   27.3084   11.9640 H   0  0  0  0  0  0  0  0  0  0  0  0
   -1.5822   26.0683    8.9107 H   0  0  0  0  0  0  0  0  0  0  0  0
   -0.3315   25.9075    9.9483 H   0  0  0  0  0  0  0  0  0  0  0  0
   -1.8288   25.4321   10.3943 H   0  0  0  0  0  0  0  0  0  0  0  0
   -3.4724   27.7704    9.5115 H   0  0  0  0  0  0  0  0  0  0  0  0
   -3.5686   27.0132   10.9552 H   0  0  0  0  0  0  0  0  0  0  0  0
   -3.3339   28.6281   10.8942 H   0  0  0  0  0  0  0  0  0  0  0  0
   -0.6815   31.7394    9.1250 H   0  0  0  0  0  0  0  0  0  0  0  0
   -1.5074   31.4678    7.7427 H   0  0  0  0  0  0  0  0  0  0  0  0
   -2.3486   29.5178    8.4705 H   0  0  0  0  0  0  0  0  0  0  0  0
   -2.2148   30.2939    9.9011 H   0  0  0  0  0  0  0  0  0  0  0  0
    0.8206   27.5722    8.9081 H   0  0  0  0  0  0  0  0  0  0  0  0
   -0.4276   27.6833    7.8610 H   0  0  0  0  0  0  0  0  0  0  0  0
   -0.1958   29.1251   10.3743 H   0  0  0  0  0  0  0  0  0  0  0  0
  1 12  2  0  0  0  0
  2  3  1  0  0  0  0
  3 12  1  0  0  0  0
  4  5  1  0  0  0  0
  4 13  2  0  0  0  0
  5 14  1  0  0  0  0
  6 17  1  0  0  0  0
  7 17  1  0  0  0  0
  8 17  1  0  0  0  0
  9 10  1  0  0  0  0
  9 13  1  0  0  0  0
 10 16  1  0  0  0  0
 11 15  1  0  0  0  0
 11 16  1  0  0  0  0
 12 14  1  0  0  0  0
 13 15  1  0  0  0  0
 14 15  2  0  0  0  0
 16 17  1  0  0  0  0
  2 18  1  0  0  0  0
  2 19  1  0  0  0  0
  3 20  1  0  0  0  0
  5 21  1  0  0  0  0
  6 22  1  0  0  0  0
  6 23  1  0  0  0  0
  6 24  1  0  0  0  0
  7 25  1  0  0  0  0
  7 26  1  0  0  0  0
  7 27  1  0  0  0  0
  8 28  1  0  0  0  0
  8 29  1  0  0  0  0
  8 30  1  0  0  0  0
  9 31  1  0  0  0  0
  9 32  1  0  0  0  0
 10 33  1  0  0  0  0
 10 34  1  0  0  0  0
 11 35  1  0  0  0  0
 11 36  1  0  0  0  0
 16 37  1  0  0  0  0
M  END
$$$$
