Z46_A_511
          05071912473D 1   1.00000     0.00000     0
            
 34 35  0  0  0  0            999 V2000
    2.0481   26.6665    7.1384 O   0  0  0  0  0  0  0  0  0  0  0  0
    4.1938   26.8640    5.5194 N   0  0  0  0  0  0  0  0  0  0  0  0
    3.3968   27.9979    5.7352 N   0  0  0  0  0  0  0  0  0  0  0  0
    0.9470   31.1578    7.0467 N   0  0  0  0  0  0  0  0  0  0  0  0
    1.8181   30.3108    6.5105 N   0  0  0  0  0  0  0  0  0  0  0  0
   -0.8552   27.2181   12.6188 C   0  0  0  0  0  0  0  0  0  0  0  0
   -1.3804   26.6319   11.3222 C   0  0  0  0  0  0  0  0  0  0  0  0
   -2.0832   27.7151   10.4887 C   0  0  0  0  0  0  0  0  0  0  0  0
   -0.9256   31.0544    8.6253 C   0  0  0  0  0  0  0  0  0  0  0  0
   -1.8766   29.9933    9.2977 C   0  0  0  0  0  0  0  0  0  0  0  0
   -0.2514   28.0684    8.7025 C   0  0  0  0  0  0  0  0  0  0  0  0
    2.3588   27.8688    6.6105 C   0  0  0  0  0  0  0  0  0  0  0  0
    0.1179   30.4859    7.8772 C   0  0  0  0  0  0  0  0  0  0  0  0
    1.5637   29.0637    6.9947 C   0  0  0  0  0  0  0  0  0  0  0  0
   -1.0928   28.7443    9.8472 C   0  0  2  0  0  0  0  0  0  0  0  0
    0.4748   29.1328    7.8740 C   0  0  0  0  0  0  0  0  0  0  0  0
    4.9153   27.0838    4.8628 H   0  0  0  0  0  0  0  0  0  0  0  0
    4.6061   26.5769    6.3841 H   0  0  0  0  0  0  0  0  0  0  0  0
    3.5813   28.8626    5.2680 H   0  0  0  0  0  0  0  0  0  0  0  0
    2.5396   30.5488    5.8603 H   0  0  0  0  0  0  0  0  0  0  0  0
   -0.4014   26.5018   13.1488 H   0  0  0  0  0  0  0  0  0  0  0  0
   -0.2013   27.9465   12.4145 H   0  0  0  0  0  0  0  0  0  0  0  0
   -1.6167   27.5925   13.1479 H   0  0  0  0  0  0  0  0  0  0  0  0
   -2.0319   25.9024   11.5307 H   0  0  0  0  0  0  0  0  0  0  0  0
   -0.6165   26.2565   10.7973 H   0  0  0  0  0  0  0  0  0  0  0  0
   -2.7160   28.2117   11.0828 H   0  0  0  0  0  0  0  0  0  0  0  0
   -2.5956   27.2684    9.7553 H   0  0  0  0  0  0  0  0  0  0  0  0
   -0.5250   31.6203    9.3459 H   0  0  0  0  0  0  0  0  0  0  0  0
   -1.4736   31.6282    8.0167 H   0  0  0  0  0  0  0  0  0  0  0  0
   -2.5407   29.6816    8.6181 H   0  0  0  0  0  0  0  0  0  0  0  0
   -2.3576   30.4300   10.0579 H   0  0  0  0  0  0  0  0  0  0  0  0
   -0.8635   27.5481    8.1070 H   0  0  0  0  0  0  0  0  0  0  0  0
    0.4222   27.4511    9.1092 H   0  0  0  0  0  0  0  0  0  0  0  0
   -0.4620   29.0573   10.5573 H   0  0  0  0  0  0  0  0  0  0  0  0
  1 12  2  0  0  0  0
  2  3  1  0  0  0  0
  3 12  1  0  0  0  0
  4  5  1  0  0  0  0
  4 13  2  0  0  0  0
  5 14  1  0  0  0  0
  6  7  1  0  0  0  0
  7  8  1  0  0  0  0
  8 15  1  0  0  0  0
  9 10  1  0  0  0  0
  9 13  1  0  0  0  0
 10 15  1  0  0  0  0
 11 15  1  0  0  0  0
 11 16  1  0  0  0  0
 12 14  1  0  0  0  0
 13 16  1  0  0  0  0
 14 16  2  0  0  0  0
  2 17  1  0  0  0  0
  2 18  1  0  0  0  0
  3 19  1  0  0  0  0
  5 20  1  0  0  0  0
  6 21  1  0  0  0  0
  6 22  1  0  0  0  0
  6 23  1  0  0  0  0
  7 24  1  0  0  0  0
  7 25  1  0  0  0  0
  8 26  1  0  0  0  0
  8 27  1  0  0  0  0
  9 28  1  0  0  0  0
  9 29  1  0  0  0  0
 10 30  1  0  0  0  0
 10 31  1  0  0  0  0
 11 32  1  0  0  0  0
 11 33  1  0  0  0  0
 15 34  1  0  0  0  0
M  END
$$$$
