Z31_A_465
          05071912473D 1   1.00000     0.00000     0
            
 39 41  0  0  0  0            999 V2000
    1.5280   27.7467    7.5187 S   0  0  0  0  0  0  0  0  0  0  0  0
   -1.0960   30.0516    9.3785 O   0  0  0  0  0  0  0  0  0  0  0  0
    0.4130   31.4547    7.3823 N   0  0  0  0  0  0  0  0  0  0  0  0
    3.3717   28.2982    5.5994 N   0  0  0  0  0  0  0  0  0  0  0  0
    1.9483   30.0094    6.3797 N   0  0  0  0  0  0  0  0  0  0  0  0
    5.0429   26.2344    7.3712 C   0  0  0  0  0  0  0  0  0  0  0  0
    3.6058   26.8621    5.4540 C   0  0  0  0  0  0  0  0  0  0  0  0
    4.8317   26.5246    5.9412 C   0  0  0  0  0  0  0  0  0  0  0  0
   -1.4249   22.7654   11.1117 C   0  0  0  0  0  0  0  0  0  0  0  0
   -1.4061   22.7598    9.6859 C   0  0  0  0  0  0  0  0  0  0  0  0
   -1.2453   23.9816   11.8340 C   0  0  0  0  0  0  0  0  0  0  0  0
   -1.2053   23.9740    8.9611 C   0  0  0  0  0  0  0  0  0  0  0  0
   -0.6458   27.6548   11.1222 C   0  0  0  0  0  0  0  0  0  0  0  0
   -0.8587   26.4338   11.8315 C   0  0  0  0  0  0  0  0  0  0  0  0
   -0.8115   26.4380    8.9725 C   0  0  0  0  0  0  0  0  0  0  0  0
    2.3562   28.7402    6.4074 C   0  0  0  0  0  0  0  0  0  0  0  0
    0.5842   29.0878    7.9999 C   0  0  0  0  0  0  0  0  0  0  0  0
    0.9516   30.2302    7.2617 C   0  0  0  0  0  0  0  0  0  0  0  0
   -0.3640   28.9767    8.9845 C   0  0  0  0  0  0  0  0  0  0  0  0
   -0.6187   27.6731    9.6954 C   0  0  0  0  0  0  0  0  0  0  0  0
   -1.0425   25.2129   11.1274 C   0  0  0  0  0  0  0  0  0  0  0  0
   -1.0209   25.2094    9.6725 C   0  0  0  0  0  0  0  0  0  0  0  0
   -0.3256   31.6137    8.0374 H   0  0  0  0  0  0  0  0  0  0  0  0
    0.7506   32.2074    6.8171 H   0  0  0  0  0  0  0  0  0  0  0  0
    3.9488   28.9539    5.1124 H   0  0  0  0  0  0  0  0  0  0  0  0
    6.0046   26.0087    7.5271 H   0  0  0  0  0  0  0  0  0  0  0  0
    4.7968   27.0373    7.9142 H   0  0  0  0  0  0  0  0  0  0  0  0
    4.4707   25.4604    7.6424 H   0  0  0  0  0  0  0  0  0  0  0  0
    3.5584   26.6178    4.4854 H   0  0  0  0  0  0  0  0  0  0  0  0
    2.9023   26.3617    5.9587 H   0  0  0  0  0  0  0  0  0  0  0  0
    5.1170   25.7059    5.4428 H   0  0  0  0  0  0  0  0  0  0  0  0
    5.4431   27.2828    5.7146 H   0  0  0  0  0  0  0  0  0  0  0  0
   -1.5653   21.9094   11.6092 H   0  0  0  0  0  0  0  0  0  0  0  0
   -1.5343   21.9006    9.1905 H   0  0  0  0  0  0  0  0  0  0  0  0
   -1.2607   23.9759   12.8338 H   0  0  0  0  0  0  0  0  0  0  0  0
   -1.1931   23.9647    7.9613 H   0  0  0  0  0  0  0  0  0  0  0  0
   -0.5143   28.5059   11.6305 H   0  0  0  0  0  0  0  0  0  0  0  0
   -0.8786   26.4379   12.8313 H   0  0  0  0  0  0  0  0  0  0  0  0
   -0.7984   26.4422    7.9726 H   0  0  0  0  0  0  0  0  0  0  0  0
  1 16  1  0  0  0  0
  1 17  1  0  0  0  0
  2 19  2  0  0  0  0
  3 18  1  0  0  0  0
  4  7  1  0  0  0  0
  4 16  1  0  0  0  0
  5 16  2  0  0  0  0
  5 18  1  0  0  0  0
  6  8  1  0  0  0  0
  7  8  1  0  0  0  0
  9 10  2  0  0  0  0
  9 11  1  0  0  0  0
 10 12  1  0  0  0  0
 11 21  2  0  0  0  0
 12 22  2  0  0  0  0
 13 14  2  0  0  0  0
 13 20  1  0  0  0  0
 14 21  1  0  0  0  0
 15 20  2  0  0  0  0
 15 22  1  0  0  0  0
 17 18  2  0  0  0  0
 17 19  1  0  0  0  0
 19 20  1  0  0  0  0
 21 22  1  0  0  0  0
  3 23  1  0  0  0  0
  3 24  1  0  0  0  0
  4 25  1  0  0  0  0
  6 26  1  0  0  0  0
  6 27  1  0  0  0  0
  6 28  1  0  0  0  0
  7 29  1  0  0  0  0
  7 30  1  0  0  0  0
  8 31  1  0  0  0  0
  8 32  1  0  0  0  0
  9 33  1  0  0  0  0
 10 34  1  0  0  0  0
 11 35  1  0  0  0  0
 12 36  1  0  0  0  0
 13 37  1  0  0  0  0
 14 38  1  0  0  0  0
 15 39  1  0  0  0  0
M  END
$$$$
