Z62_A_473
          05071912473D 1   1.00000     0.00000     0
            
 35 36  0  0  0  0            999 V2000
    1.6599   27.7428    7.6474 S   0  0  0  0  0  0  0  0  0  0  0  0
   -0.8733   23.9352    7.9125 O   0  5  0  0  0  0  0  0  0  0  0  0
   -1.3304   22.9673    9.7972 O   0  0  0  0  0  0  0  0  0  0  0  0
   -0.9658   29.9858    9.5904 O   0  0  0  0  0  0  0  0  0  0  0  0
    0.4256   31.4609    7.6304 N   0  0  0  0  0  0  0  0  0  0  0  0
    3.4489   28.4039    5.6870 N   0  0  0  0  0  0  0  0  0  0  0  0
    1.9859   30.0779    6.5518 N   0  0  0  0  0  0  0  0  0  0  0  0
   -1.0659   24.0050    9.2326 N   0  3  0  0  0  0  0  0  0  0  0  0
    4.2587   25.5307    7.7156 C   0  0  0  0  0  0  0  0  0  0  0  0
    3.8616   26.9982    5.5930 C   0  0  0  0  0  0  0  0  0  0  0  0
    4.7135   26.5817    6.7701 C   0  0  0  0  0  0  0  0  0  0  0  0
   -1.0525   26.4791   12.0248 C   0  0  0  0  0  0  0  0  0  0  0  0
   -1.1634   25.2464   11.3314 C   0  0  0  0  0  0  0  0  0  0  0  0
   -0.7455   27.6752   11.3218 C   0  0  0  0  0  0  0  0  0  0  0  0
   -0.6619   26.3922    9.2096 C   0  0  0  0  0  0  0  0  0  0  0  0
    2.4353   28.7982    6.5358 C   0  0  0  0  0  0  0  0  0  0  0  0
    1.0102   30.2423    7.4601 C   0  0  0  0  0  0  0  0  0  0  0  0
    0.6901   29.0607    8.1788 C   0  0  0  0  0  0  0  0  0  0  0  0
   -0.2494   28.9234    9.1810 C   0  0  0  0  0  0  0  0  0  0  0  0
   -0.9680   25.1696    9.8995 C   0  0  0  0  0  0  0  0  0  0  0  0
   -0.5472   27.6460    9.9054 C   0  0  0  0  0  0  0  0  0  0  0  0
   -0.3003   31.5768    8.3084 H   0  0  0  0  0  0  0  0  0  0  0  0
    0.7224   32.2395    7.0776 H   0  0  0  0  0  0  0  0  0  0  0  0
    3.9116   29.0892    5.1246 H   0  0  0  0  0  0  0  0  0  0  0  0
    4.9528   25.3953    8.4226 H   0  0  0  0  0  0  0  0  0  0  0  0
    3.3998   25.8147    8.1417 H   0  0  0  0  0  0  0  0  0  0  0  0
    4.1172   24.6742    7.2190 H   0  0  0  0  0  0  0  0  0  0  0  0
    4.3877   26.8712    4.7520 H   0  0  0  0  0  0  0  0  0  0  0  0
    3.0446   26.4224    5.5652 H   0  0  0  0  0  0  0  0  0  0  0  0
    5.5838   26.2657    6.3923 H   0  0  0  0  0  0  0  0  0  0  0  0
    4.8664   27.4061    7.3150 H   0  0  0  0  0  0  0  0  0  0  0  0
   -1.1912   26.5064   13.0147 H   0  0  0  0  0  0  0  0  0  0  0  0
   -1.3809   24.4145   11.8420 H   0  0  0  0  0  0  0  0  0  0  0  0
   -0.6678   28.5396   11.8186 H   0  0  0  0  0  0  0  0  0  0  0  0
   -0.5250   26.3710    8.2192 H   0  0  0  0  0  0  0  0  0  0  0  0
  1 16  1  0  0  0  0
  1 18  1  0  0  0  0
  2  8  1  0  0  0  0
  3  8  2  0  0  0  0
  4 19  2  0  0  0  0
  5 17  1  0  0  0  0
  6 10  1  0  0  0  0
  6 16  1  0  0  0  0
  7 16  2  0  0  0  0
  7 17  1  0  0  0  0
  8 20  1  0  0  0  0
  9 11  1  0  0  0  0
 10 11  1  0  0  0  0
 12 13  1  0  0  0  0
 12 14  2  0  0  0  0
 13 20  2  0  0  0  0
 14 21  1  0  0  0  0
 15 20  1  0  0  0  0
 15 21  2  0  0  0  0
 17 18  2  0  0  0  0
 18 19  1  0  0  0  0
 19 21  1  0  0  0  0
  5 22  1  0  0  0  0
  5 23  1  0  0  0  0
  6 24  1  0  0  0  0
  9 25  1  0  0  0  0
  9 26  1  0  0  0  0
  9 27  1  0  0  0  0
 10 28  1  0  0  0  0
 10 29  1  0  0  0  0
 11 30  1  0  0  0  0
 11 31  1  0  0  0  0
 12 32  1  0  0  0  0
 13 33  1  0  0  0  0
 14 34  1  0  0  0  0
 15 35  1  0  0  0  0
M  CHG  2   2  -1   8   1
M  END
$$$$
