X6B_A_590
          05071912473D 1   1.00000     0.00000     0
            
 41 43  0  0  0  0            999 V2000
    1.0304   28.1424    7.8319 S   0  0  0  0  0  0  0  0  0  0  0  0
    6.6006   23.8585    7.2965 S   0  0  0  0  0  0  0  0  0  0  0  0
   -5.9497   29.5389   10.8988 F   0  0  0  0  0  0  0  0  0  0  0  0
    7.5999   24.2647    8.2319 O   0  0  0  0  0  0  0  0  0  0  0  0
    7.2316   23.4711    6.0395 O   0  0  0  0  0  0  0  0  0  0  0  0
   -1.6457   30.6615    9.0925 O   0  0  0  0  0  0  0  0  0  0  0  0
    5.7191   22.5885    7.9560 N   0  0  0  0  0  0  0  0  0  0  0  0
    0.2323   31.8207    7.4801 N   0  0  0  0  0  0  0  0  0  0  0  0
    1.8349   30.3358    6.7247 N   0  0  0  0  0  0  0  0  0  0  0  0
    3.1634   28.5719    6.2199 N   0  0  0  0  0  0  0  0  0  0  0  0
   -1.4597   28.4096    9.4857 N   0  0  0  0  0  0  0  0  0  0  0  0
   -3.6443   26.9401   12.1070 C   0  0  0  0  0  0  0  0  0  0  0  0
   -4.8142   27.7471   11.9812 C   0  0  0  0  0  0  0  0  0  0  0  0
    5.7307   26.0335    5.8337 C   0  0  0  0  0  0  0  0  0  0  0  0
    4.5320   25.5864    7.9408 C   0  0  0  0  0  0  0  0  0  0  0  0
   -2.5192   27.1811   11.2610 C   0  0  0  0  0  0  0  0  0  0  0  0
    4.9037   27.1573    5.5929 C   0  0  0  0  0  0  0  0  0  0  0  0
    3.6969   26.7142    7.7037 C   0  0  0  0  0  0  0  0  0  0  0  0
   -3.7450   29.0249   10.1702 C   0  0  0  0  0  0  0  0  0  0  0  0
    2.1206   29.0568    6.8395 C   0  0  0  0  0  0  0  0  0  0  0  0
    0.1043   29.5744    8.1242 C   0  0  0  0  0  0  0  0  0  0  0  0
    5.5464   25.2540    7.0045 C   0  0  0  0  0  0  0  0  0  0  0  0
   -4.8632   28.7880   11.0164 C   0  0  0  0  0  0  0  0  0  0  0  0
   -1.0318   29.6091    8.9127 C   0  0  0  0  0  0  0  0  0  0  0  0
    0.6933   30.6392    7.4489 C   0  0  0  0  0  0  0  0  0  0  0  0
    3.8786   27.5192    6.5141 C   0  0  0  0  0  0  0  0  0  0  0  0
   -2.5599   28.2209   10.2895 C   0  0  0  0  0  0  0  0  0  0  0  0
    5.0164   22.2978    7.3066 H   0  0  0  0  0  0  0  0  0  0  0  0
    6.3320   21.8222    8.1491 H   0  0  0  0  0  0  0  0  0  0  0  0
   -0.5928   32.0217    8.0080 H   0  0  0  0  0  0  0  0  0  0  0  0
    0.6941   32.5510    6.9768 H   0  0  0  0  0  0  0  0  0  0  0  0
    3.4546   29.0767    5.4073 H   0  0  0  0  0  0  0  0  0  0  0  0
   -0.9061   27.5999    9.2906 H   0  0  0  0  0  0  0  0  0  0  0  0
   -3.6122   26.2071   12.7864 H   0  0  0  0  0  0  0  0  0  0  0  0
   -5.6019   27.5792   12.5740 H   0  0  0  0  0  0  0  0  0  0  0  0
    6.4451   25.7891    5.1780 H   0  0  0  0  0  0  0  0  0  0  0  0
    4.4051   25.0309    8.7626 H   0  0  0  0  0  0  0  0  0  0  0  0
   -1.6987   26.6165   11.3514 H   0  0  0  0  0  0  0  0  0  0  0  0
    5.0407   27.7035    4.7666 H   0  0  0  0  0  0  0  0  0  0  0  0
    2.9819   26.9515    8.3612 H   0  0  0  0  0  0  0  0  0  0  0  0
   -3.7836   29.7552    9.4882 H   0  0  0  0  0  0  0  0  0  0  0  0
  1 20  1  0  0  0  0
  1 21  1  0  0  0  0
  2  4  2  0  0  0  0
  2  5  2  0  0  0  0
  2  7  1  0  0  0  0
  2 22  1  0  0  0  0
  3 23  1  0  0  0  0
  6 24  2  0  0  0  0
  8 25  1  0  0  0  0
  9 20  2  0  0  0  0
  9 25  1  0  0  0  0
 10 20  1  0  0  0  0
 10 26  1  0  0  0  0
 11 24  1  0  0  0  0
 11 27  1  0  0  0  0
 12 13  2  0  0  0  0
 12 16  1  0  0  0  0
 13 23  1  0  0  0  0
 14 17  1  0  0  0  0
 14 22  2  0  0  0  0
 15 18  2  0  0  0  0
 15 22  1  0  0  0  0
 16 27  2  0  0  0  0
 17 26  2  0  0  0  0
 18 26  1  0  0  0  0
 19 23  2  0  0  0  0
 19 27  1  0  0  0  0
 21 24  1  0  0  0  0
 21 25  2  0  0  0  0
  7 28  1  0  0  0  0
  7 29  1  0  0  0  0
  8 30  1  0  0  0  0
  8 31  1  0  0  0  0
 10 32  1  0  0  0  0
 11 33  1  0  0  0  0
 12 34  1  0  0  0  0
 13 35  1  0  0  0  0
 14 36  1  0  0  0  0
 15 37  1  0  0  0  0
 16 38  1  0  0  0  0
 17 39  1  0  0  0  0
 18 40  1  0  0  0  0
 19 41  1  0  0  0  0
M  END
$$$$
