Z67_A_606
          05071912473D 1   1.00000     0.00000     0
            
 41 43  0  0  0  0            999 V2000
    1.0547   28.2847    7.9138 S   0  0  0  0  0  0  0  0  0  0  0  0
    6.6247   23.8978    7.2756 S   0  0  0  0  0  0  0  0  0  0  0  0
   -0.8254   27.2011   11.8021 F   0  0  0  0  0  0  0  0  0  0  0  0
   -4.2893   28.9397    8.8419 F   0  0  0  0  0  0  0  0  0  0  0  0
    7.6575   24.4400    8.1613 O   0  0  0  0  0  0  0  0  0  0  0  0
    7.0150   23.3189    5.9756 O   0  0  0  0  0  0  0  0  0  0  0  0
   -1.7853   30.6866    9.1140 O   0  0  0  0  0  0  0  0  0  0  0  0
    5.7129   22.7335    8.1490 N   0  0  0  0  0  0  0  0  0  0  0  0
   -0.0697   31.9789    7.0970 N   0  0  0  0  0  0  0  0  0  0  0  0
    1.6943   30.4001    6.5809 N   0  0  0  0  0  0  0  0  0  0  0  0
    3.2852   28.6762    6.3609 N   0  0  0  0  0  0  0  0  0  0  0  0
   -1.4669   28.4445    9.3823 N   0  0  0  0  0  0  0  0  0  0  0  0
   -4.5298   27.3158   12.1761 C   0  0  0  0  0  0  0  0  0  0  0  0
   -3.1474   27.0591   12.4613 C   0  0  0  0  0  0  0  0  0  0  0  0
   -4.9084   27.9528   10.9507 C   0  0  0  0  0  0  0  0  0  0  0  0
    5.7966   26.0638    5.7991 C   0  0  0  0  0  0  0  0  0  0  0  0
    4.5638   25.5843    7.9173 C   0  0  0  0  0  0  0  0  0  0  0  0
    4.9985   27.2068    5.5802 C   0  0  0  0  0  0  0  0  0  0  0  0
    3.7698   26.7264    7.6966 C   0  0  0  0  0  0  0  0  0  0  0  0
    2.1087   29.1740    6.8485 C   0  0  0  0  0  0  0  0  0  0  0  0
    0.0225   29.7042    8.0027 C   0  0  0  0  0  0  0  0  0  0  0  0
    5.5747   25.2655    6.9743 C   0  0  0  0  0  0  0  0  0  0  0  0
   -2.1398   27.4425   11.5222 C   0  0  0  0  0  0  0  0  0  0  0  0
   -3.9031   28.3380    9.9994 C   0  0  0  0  0  0  0  0  0  0  0  0
   -1.1684   29.6473    8.8673 C   0  0  0  0  0  0  0  0  0  0  0  0
    0.5088   30.7198    7.2363 C   0  0  0  0  0  0  0  0  0  0  0  0
    3.9821   27.5536    6.5266 C   0  0  0  0  0  0  0  0  0  0  0  0
   -2.5009   28.0795   10.2897 C   0  0  0  0  0  0  0  0  0  0  0  0
    5.0026   22.3536    7.5565 H   0  0  0  0  0  0  0  0  0  0  0  0
    6.3178   21.9992    8.4572 H   0  0  0  0  0  0  0  0  0  0  0  0
   -0.9218   32.1932    7.5745 H   0  0  0  0  0  0  0  0  0  0  0  0
    0.3670   32.6687    6.5195 H   0  0  0  0  0  0  0  0  0  0  0  0
    3.7301   29.3082    5.7263 H   0  0  0  0  0  0  0  0  0  0  0  0
   -0.8760   27.6946    9.0850 H   0  0  0  0  0  0  0  0  0  0  0  0
   -5.2321   27.0488   12.8360 H   0  0  0  0  0  0  0  0  0  0  0  0
   -2.8885   26.6118   13.3174 H   0  0  0  0  0  0  0  0  0  0  0  0
   -5.8734   28.1297   10.7569 H   0  0  0  0  0  0  0  0  0  0  0  0
    6.5088   25.8116    5.1440 H   0  0  0  0  0  0  0  0  0  0  0  0
    4.4179   25.0095    8.7225 H   0  0  0  0  0  0  0  0  0  0  0  0
    5.1423   27.7719    4.7678 H   0  0  0  0  0  0  0  0  0  0  0  0
    3.0544   26.9679    8.3523 H   0  0  0  0  0  0  0  0  0  0  0  0
  1 20  1  0  0  0  0
  1 21  1  0  0  0  0
  2  5  2  0  0  0  0
  2  6  2  0  0  0  0
  2  8  1  0  0  0  0
  2 22  1  0  0  0  0
  3 23  1  0  0  0  0
  4 24  1  0  0  0  0
  7 25  2  0  0  0  0
  9 26  1  0  0  0  0
 10 20  2  0  0  0  0
 10 26  1  0  0  0  0
 11 20  1  0  0  0  0
 11 27  1  0  0  0  0
 12 25  1  0  0  0  0
 12 28  1  0  0  0  0
 13 14  2  0  0  0  0
 13 15  1  0  0  0  0
 14 23  1  0  0  0  0
 15 24  2  0  0  0  0
 16 18  1  0  0  0  0
 16 22  2  0  0  0  0
 17 19  2  0  0  0  0
 17 22  1  0  0  0  0
 18 27  2  0  0  0  0
 19 27  1  0  0  0  0
 21 25  1  0  0  0  0
 21 26  2  0  0  0  0
 23 28  2  0  0  0  0
 24 28  1  0  0  0  0
  8 29  1  0  0  0  0
  8 30  1  0  0  0  0
  9 31  1  0  0  0  0
  9 32  1  0  0  0  0
 11 33  1  0  0  0  0
 12 34  1  0  0  0  0
 13 35  1  0  0  0  0
 14 36  1  0  0  0  0
 15 37  1  0  0  0  0
 16 38  1  0  0  0  0
 17 39  1  0  0  0  0
 18 40  1  0  0  0  0
 19 41  1  0  0  0  0
M  END
$$$$
