Z68_A_529
          05071912473D 1   1.00000     0.00000     0
            
 42 44  0  0  0  0            999 V2000
    1.5522   27.4666    7.7439 S   0  0  0  0  0  0  0  0  0  0  0  0
   -1.0811   23.8790    8.0499 O   0  5  0  0  0  0  0  0  0  0  0  0
   -1.5533   22.9093    9.9222 O   0  0  0  0  0  0  0  0  0  0  0  0
   -1.0632   29.9002    9.5443 O   0  0  0  0  0  0  0  0  0  0  0  0
    0.4294   31.2163    7.5892 N   0  0  0  0  0  0  0  0  0  0  0  0
    1.9852   29.7541    6.5635 N   0  0  0  0  0  0  0  0  0  0  0  0
    3.3816   27.9755    5.8247 N   0  0  0  0  0  0  0  0  0  0  0  0
   -1.2801   23.9503    9.3702 N   0  3  0  0  0  0  0  0  0  0  0  0
    6.3217   24.7792    6.3567 C   0  0  0  0  0  0  0  0  0  0  0  0
    5.6153   25.3487    7.6394 C   0  0  0  0  0  0  0  0  0  0  0  0
    5.3758   24.7560    5.1123 C   0  0  0  0  0  0  0  0  0  0  0  0
   -1.2608   26.5191   12.2002 C   0  0  0  0  0  0  0  0  0  0  0  0
    4.9897   26.7378    7.3484 C   0  0  0  0  0  0  0  0  0  0  0  0
    4.7222   26.1459    4.8450 C   0  0  0  0  0  0  0  0  0  0  0  0
   -1.3955   25.1886   11.5259 C   0  0  0  0  0  0  0  0  0  0  0  0
   -0.9461   27.6483   11.4720 C   0  0  0  0  0  0  0  0  0  0  0  0
   -0.8424   26.3627    9.2978 C   0  0  0  0  0  0  0  0  0  0  0  0
    2.3823   28.4569    6.6170 C   0  0  0  0  0  0  0  0  0  0  0  0
    0.6391   28.8488    8.1833 C   0  0  0  0  0  0  0  0  0  0  0  0
    0.9964   29.9813    7.4484 C   0  0  0  0  0  0  0  0  0  0  0  0
   -0.4100   28.7667    9.2565 C   0  0  0  0  0  0  0  0  0  0  0  0
    3.9836   26.6691    6.1155 C   0  0  0  0  0  0  0  0  0  0  0  0
   -1.1836   25.0685   10.0204 C   0  0  0  0  0  0  0  0  0  0  0  0
   -0.7206   27.6018    9.9537 C   0  0  0  0  0  0  0  0  0  0  0  0
   -0.3038   31.3570    8.2546 H   0  0  0  0  0  0  0  0  0  0  0  0
    0.7474   31.9796    7.0269 H   0  0  0  0  0  0  0  0  0  0  0  0
    3.7045   28.5125    5.0454 H   0  0  0  0  0  0  0  0  0  0  0  0
    6.6257   23.8455    6.5458 H   0  0  0  0  0  0  0  0  0  0  0  0
    7.1142   25.3516    6.1463 H   0  0  0  0  0  0  0  0  0  0  0  0
    6.2892   25.4391    8.3727 H   0  0  0  0  0  0  0  0  0  0  0  0
    4.8945   24.7172    7.9252 H   0  0  0  0  0  0  0  0  0  0  0  0
    4.6518   24.0845    5.2703 H   0  0  0  0  0  0  0  0  0  0  0  0
    5.9075   24.4899    4.3082 H   0  0  0  0  0  0  0  0  0  0  0  0
   -1.4003   26.5899   13.1879 H   0  0  0  0  0  0  0  0  0  0  0  0
    5.7205   27.3869    7.1373 H   0  0  0  0  0  0  0  0  0  0  0  0
    4.4923   27.0478    8.1586 H   0  0  0  0  0  0  0  0  0  0  0  0
    4.0646   26.0597    4.0966 H   0  0  0  0  0  0  0  0  0  0  0  0
    5.4350   26.7988    4.5889 H   0  0  0  0  0  0  0  0  0  0  0  0
   -1.6248   24.3775   12.0639 H   0  0  0  0  0  0  0  0  0  0  0  0
   -0.8623   28.5239   11.9478 H   0  0  0  0  0  0  0  0  0  0  0  0
   -0.6977   26.3316    8.3088 H   0  0  0  0  0  0  0  0  0  0  0  0
    3.2508   26.0272    6.3415 H   0  0  0  0  0  0  0  0  0  0  0  0
  1 18  1  0  0  0  0
  1 19  1  0  0  0  0
  2  8  1  0  0  0  0
  3  8  2  0  0  0  0
  4 21  2  0  0  0  0
  5 20  1  0  0  0  0
  6 18  2  0  0  0  0
  6 20  1  0  0  0  0
  7 18  1  0  0  0  0
  7 22  1  0  0  0  0
  8 23  1  0  0  0  0
  9 10  1  0  0  0  0
  9 11  1  0  0  0  0
 10 13  1  0  0  0  0
 11 14  1  0  0  0  0
 12 15  1  0  0  0  0
 12 16  2  0  0  0  0
 13 22  1  0  0  0  0
 14 22  1  0  0  0  0
 15 23  2  0  0  0  0
 16 24  1  0  0  0  0
 17 23  1  0  0  0  0
 17 24  2  0  0  0  0
 19 20  2  0  0  0  0
 19 21  1  0  0  0  0
 21 24  1  0  0  0  0
  5 25  1  0  0  0  0
  5 26  1  0  0  0  0
  7 27  1  0  0  0  0
  9 28  1  0  0  0  0
  9 29  1  0  0  0  0
 10 30  1  0  0  0  0
 10 31  1  0  0  0  0
 11 32  1  0  0  0  0
 11 33  1  0  0  0  0
 12 34  1  0  0  0  0
 13 35  1  0  0  0  0
 13 36  1  0  0  0  0
 14 37  1  0  0  0  0
 14 38  1  0  0  0  0
 15 39  1  0  0  0  0
 16 40  1  0  0  0  0
 17 41  1  0  0  0  0
 22 42  1  0  0  0  0
M  CHG  2   2  -1   8   1
M  END
$$$$
