Z71_A_401
          05071912473D 1   1.00000     0.00000     0
            
 41 43  0  0  0  0            999 V2000
    0.9636   28.2272    7.9616 S   0  0  0  0  0  0  0  0  0  0  0  0
    6.5816   23.8274    7.1788 S   0  0  0  0  0  0  0  0  0  0  0  0
   -3.7213   25.8809   12.9538 F   0  0  0  0  0  0  0  0  0  0  0  0
   -6.1671   29.5528   11.0151 F   0  0  0  0  0  0  0  0  0  0  0  0
    7.6178   24.2473    8.1272 O   0  0  0  0  0  0  0  0  0  0  0  0
    6.9952   23.3484    5.8319 O   0  0  0  0  0  0  0  0  0  0  0  0
   -1.8830   30.7422    8.9948 O   0  0  0  0  0  0  0  0  0  0  0  0
    5.6217   22.6211    7.9032 N   0  0  0  0  0  0  0  0  0  0  0  0
   -0.0119   31.9800    7.1802 N   0  0  0  0  0  0  0  0  0  0  0  0
    1.6981   30.3761    6.6644 N   0  0  0  0  0  0  0  0  0  0  0  0
    3.2585   28.6429    6.4065 N   0  0  0  0  0  0  0  0  0  0  0  0
   -1.6137   28.5238    9.4770 N   0  0  0  0  0  0  0  0  0  0  0  0
    5.7454   26.0370    5.7439 C   0  0  0  0  0  0  0  0  0  0  0  0
    4.5589   25.5379    7.8816 C   0  0  0  0  0  0  0  0  0  0  0  0
    4.9476   27.1900    5.5517 C   0  0  0  0  0  0  0  0  0  0  0  0
    3.7670   26.6839    7.6917 C   0  0  0  0  0  0  0  0  0  0  0  0
   -4.9774   27.6977   12.0078 C   0  0  0  0  0  0  0  0  0  0  0  0
   -2.6678   27.1871   11.2287 C   0  0  0  0  0  0  0  0  0  0  0  0
   -3.9461   29.0691   10.2476 C   0  0  0  0  0  0  0  0  0  0  0  0
    2.0754   29.1344    6.9099 C   0  0  0  0  0  0  0  0  0  0  0  0
   -0.0219   29.6894    8.0542 C   0  0  0  0  0  0  0  0  0  0  0  0
    5.5499   25.2240    6.9131 C   0  0  0  0  0  0  0  0  0  0  0  0
   -3.7872   26.8988   12.0783 C   0  0  0  0  0  0  0  0  0  0  0  0
   -5.0503   28.7838   11.0907 C   0  0  0  0  0  0  0  0  0  0  0  0
   -1.2530   29.6873    8.8824 C   0  0  0  0  0  0  0  0  0  0  0  0
    0.5173   30.7075    7.3082 C   0  0  0  0  0  0  0  0  0  0  0  0
    3.9533   27.5230    6.5297 C   0  0  0  0  0  0  0  0  0  0  0  0
   -2.7435   28.2761   10.3054 C   0  0  0  0  0  0  0  0  0  0  0  0
    4.9122   22.3297    7.2615 H   0  0  0  0  0  0  0  0  0  0  0  0
    6.1955   21.8382    8.1436 H   0  0  0  0  0  0  0  0  0  0  0  0
   -0.8646   32.2161    7.6463 H   0  0  0  0  0  0  0  0  0  0  0  0
    0.4583   32.6632    6.6216 H   0  0  0  0  0  0  0  0  0  0  0  0
    3.7050   29.2954    5.7942 H   0  0  0  0  0  0  0  0  0  0  0  0
   -1.0109   27.7428    9.3131 H   0  0  0  0  0  0  0  0  0  0  0  0
    6.4415   25.7892    5.0700 H   0  0  0  0  0  0  0  0  0  0  0  0
    4.4271   24.9546    8.6831 H   0  0  0  0  0  0  0  0  0  0  0  0
    5.0758   27.7653    4.7439 H   0  0  0  0  0  0  0  0  0  0  0  0
    3.0685   26.9208    8.3669 H   0  0  0  0  0  0  0  0  0  0  0  0
   -5.7546   27.4915   12.6023 H   0  0  0  0  0  0  0  0  0  0  0  0
   -1.8393   26.6296   11.2819 H   0  0  0  0  0  0  0  0  0  0  0  0
   -4.0026   29.8318    9.6034 H   0  0  0  0  0  0  0  0  0  0  0  0
  1 20  1  0  0  0  0
  1 21  1  0  0  0  0
  2  5  2  0  0  0  0
  2  6  2  0  0  0  0
  2  8  1  0  0  0  0
  2 22  1  0  0  0  0
  3 23  1  0  0  0  0
  4 24  1  0  0  0  0
  7 25  2  0  0  0  0
  9 26  1  0  0  0  0
 10 20  2  0  0  0  0
 10 26  1  0  0  0  0
 11 20  1  0  0  0  0
 11 27  1  0  0  0  0
 12 25  1  0  0  0  0
 12 28  1  0  0  0  0
 13 15  1  0  0  0  0
 13 22  2  0  0  0  0
 14 16  2  0  0  0  0
 14 22  1  0  0  0  0
 15 27  2  0  0  0  0
 16 27  1  0  0  0  0
 17 23  2  0  0  0  0
 17 24  1  0  0  0  0
 18 23  1  0  0  0  0
 18 28  2  0  0  0  0
 19 24  2  0  0  0  0
 19 28  1  0  0  0  0
 21 25  1  0  0  0  0
 21 26  2  0  0  0  0
  8 29  1  0  0  0  0
  8 30  1  0  0  0  0
  9 31  1  0  0  0  0
  9 32  1  0  0  0  0
 11 33  1  0  0  0  0
 12 34  1  0  0  0  0
 13 35  1  0  0  0  0
 14 36  1  0  0  0  0
 15 37  1  0  0  0  0
 16 38  1  0  0  0  0
 17 39  1  0  0  0  0
 18 40  1  0  0  0  0
 19 41  1  0  0  0  0
M  END
$$$$
