04Z_A_499
          05071912473D 1   1.00000     0.00000     0
            
 43 45  0  0  0  0            999 V2000
    0.9324   28.0982    7.9906 S   0  0  0  0  0  0  0  0  0  0  0  0
    6.5991   23.9097    7.3733 S   0  0  0  0  0  0  0  0  0  0  0  0
    7.7684   24.4735    8.3265 O   0  0  0  0  0  0  0  0  0  0  0  0
    7.2113   23.3532    5.9643 O   0  0  0  0  0  0  0  0  0  0  0  0
   -1.8430   30.7660    9.1996 O   0  0  0  0  0  0  0  0  0  0  0  0
   -4.5340   26.0822   10.3207 O   0  0  0  0  0  0  0  0  0  0  0  0
    5.8426   22.7738    8.1222 N   0  0  0  0  0  0  0  0  0  0  0  0
    0.0251   31.8147    7.4248 N   0  0  0  0  0  0  0  0  0  0  0  0
    1.6322   30.2391    6.7208 N   0  0  0  0  0  0  0  0  0  0  0  0
    3.0523   28.4554    6.2283 N   0  0  0  0  0  0  0  0  0  0  0  0
   -4.9762   24.9985   10.9610 C   0  0  0  0  0  0  0  0  0  0  0  0
   -0.9607   26.6222   11.5791 C   0  0  0  0  0  0  0  0  0  0  0  0
    4.5130   25.4088    7.9824 C   0  0  0  0  0  0  0  0  0  0  0  0
    5.8111   25.9682    5.8991 C   0  0  0  0  0  0  0  0  0  0  0  0
   -2.2944   26.0317   11.4198 C   0  0  0  0  0  0  0  0  0  0  0  0
   -0.6202   27.7849   10.8148 C   0  0  0  0  0  0  0  0  0  0  0  0
    3.6531   26.4972    7.7212 C   0  0  0  0  0  0  0  0  0  0  0  0
    4.9493   27.0666    5.6327 C   0  0  0  0  0  0  0  0  0  0  0  0
   -2.9015   27.7992    9.7349 C   0  0  0  0  0  0  0  0  0  0  0  0
    1.9655   28.9558    6.9007 C   0  0  0  0  0  0  0  0  0  0  0  0
    0.0290   29.5314    8.1979 C   0  0  0  0  0  0  0  0  0  0  0  0
    5.6055   25.1315    7.0762 C   0  0  0  0  0  0  0  0  0  0  0  0
   -3.2568   26.6293   10.4955 C   0  0  0  0  0  0  0  0  0  0  0  0
   -1.1642   29.6007    9.0997 C   0  0  0  0  0  0  0  0  0  0  0  0
    0.5404   30.5708    7.4454 C   0  0  0  0  0  0  0  0  0  0  0  0
    3.8489   27.3678    6.5343 C   0  0  0  0  0  0  0  0  0  0  0  0
   -1.5753   28.3934    9.8828 C   0  0  0  0  0  0  0  0  0  0  0  0
    5.1138   22.4170    7.5377 H   0  0  0  0  0  0  0  0  0  0  0  0
    6.4819   22.0378    8.3446 H   0  0  0  0  0  0  0  0  0  0  0  0
   -0.7838   32.0299    7.9718 H   0  0  0  0  0  0  0  0  0  0  0  0
    0.4514   32.5233    6.8624 H   0  0  0  0  0  0  0  0  0  0  0  0
    3.3046   28.9493    5.3962 H   0  0  0  0  0  0  0  0  0  0  0  0
   -5.9132   24.8005   10.6734 H   0  0  0  0  0  0  0  0  0  0  0  0
   -4.3887   24.2193   10.7424 H   0  0  0  0  0  0  0  0  0  0  0  0
   -4.9579   25.1633   11.9472 H   0  0  0  0  0  0  0  0  0  0  0  0
   -0.2995   26.2190   12.2117 H   0  0  0  0  0  0  0  0  0  0  0  0
    4.3680   24.8340    8.7877 H   0  0  0  0  0  0  0  0  0  0  0  0
    6.5653   25.7672    5.2740 H   0  0  0  0  0  0  0  0  0  0  0  0
   -2.5458   25.2186   11.9447 H   0  0  0  0  0  0  0  0  0  0  0  0
    0.2880   28.1903   10.9189 H   0  0  0  0  0  0  0  0  0  0  0  0
    2.8970   26.6858    8.3479 H   0  0  0  0  0  0  0  0  0  0  0  0
    5.1001   27.6337    4.8231 H   0  0  0  0  0  0  0  0  0  0  0  0
   -3.5633   28.2052    9.1048 H   0  0  0  0  0  0  0  0  0  0  0  0
  1 20  1  0  0  0  0
  1 21  1  0  0  0  0
  2  3  2  0  0  0  0
  2  4  2  0  0  0  0
  2  7  1  0  0  0  0
  2 22  1  0  0  0  0
  5 24  2  0  0  0  0
  6 11  1  0  0  0  0
  6 23  1  0  0  0  0
  8 25  1  0  0  0  0
  9 20  2  0  0  0  0
  9 25  1  0  0  0  0
 10 20  1  0  0  0  0
 10 26  1  0  0  0  0
 12 15  2  0  0  0  0
 12 16  1  0  0  0  0
 13 17  1  0  0  0  0
 13 22  2  0  0  0  0
 14 18  2  0  0  0  0
 14 22  1  0  0  0  0
 15 23  1  0  0  0  0
 16 27  2  0  0  0  0
 17 26  2  0  0  0  0
 18 26  1  0  0  0  0
 19 23  2  0  0  0  0
 19 27  1  0  0  0  0
 21 24  1  0  0  0  0
 21 25  2  0  0  0  0
 24 27  1  0  0  0  0
  7 28  1  0  0  0  0
  7 29  1  0  0  0  0
  8 30  1  0  0  0  0
  8 31  1  0  0  0  0
 10 32  1  0  0  0  0
 11 33  1  0  0  0  0
 11 34  1  0  0  0  0
 11 35  1  0  0  0  0
 12 36  1  0  0  0  0
 13 37  1  0  0  0  0
 14 38  1  0  0  0  0
 15 39  1  0  0  0  0
 16 40  1  0  0  0  0
 17 41  1  0  0  0  0
 18 42  1  0  0  0  0
 19 43  1  0  0  0  0
M  END
$$$$
