06Z_A_450
          05071912473D 1   1.00000     0.00000     0
            
 34 36  0  0  0  0            999 V2000
    1.1664   28.0947    7.9726 S   0  0  0  0  0  0  0  0  0  0  0  0
    6.3046   25.2527    4.1609 F   0  0  0  0  0  0  0  0  0  0  0  0
   -1.5905   30.7167    9.2746 O   0  0  0  0  0  0  0  0  0  0  0  0
    0.3094   31.8221    7.5632 N   0  0  0  0  0  0  0  0  0  0  0  0
    1.9151   30.3029    6.8223 N   0  0  0  0  0  0  0  0  0  0  0  0
    3.3591   28.5649    6.3155 N   0  0  0  0  0  0  0  0  0  0  0  0
   -2.4836   26.1758   11.4542 C   0  0  0  0  0  0  0  0  0  0  0  0
   -1.0808   26.4972   11.4921 C   0  0  0  0  0  0  0  0  0  0  0  0
   -3.3949   26.9738   10.6607 C   0  0  0  0  0  0  0  0  0  0  0  0
    4.3569   25.0094    7.3254 C   0  0  0  0  0  0  0  0  0  0  0  0
    5.2415   24.6263    6.2348 C   0  0  0  0  0  0  0  0  0  0  0  0
    3.7378   26.3256    7.3416 C   0  0  0  0  0  0  0  0  0  0  0  0
   -0.5953   27.6146   10.7383 C   0  0  0  0  0  0  0  0  0  0  0  0
   -2.9069   28.1013    9.8980 C   0  0  0  0  0  0  0  0  0  0  0  0
    4.8796   26.9127    5.1685 C   0  0  0  0  0  0  0  0  0  0  0  0
    2.2367   29.0492    6.9518 C   0  0  0  0  0  0  0  0  0  0  0  0
    5.4864   25.5835    5.1828 C   0  0  0  0  0  0  0  0  0  0  0  0
    0.1994   29.5212    8.2828 C   0  0  0  0  0  0  0  0  0  0  0  0
    0.7826   30.5859    7.5546 C   0  0  0  0  0  0  0  0  0  0  0  0
   -0.9874   29.6231    9.1424 C   0  0  0  0  0  0  0  0  0  0  0  0
    3.9910   27.2898    6.2579 C   0  0  0  0  0  0  0  0  0  0  0  0
   -1.4997   28.4327    9.9271 C   0  0  0  0  0  0  0  0  0  0  0  0
   -0.5117   32.0395    8.0909 H   0  0  0  0  0  0  0  0  0  0  0  0
    0.7731   32.5386    7.0421 H   0  0  0  0  0  0  0  0  0  0  0  0
    3.8335   29.2608    5.7765 H   0  0  0  0  0  0  0  0  0  0  0  0
   -2.8304   25.3979   11.9783 H   0  0  0  0  0  0  0  0  0  0  0  0
   -0.4512   25.9457   12.0394 H   0  0  0  0  0  0  0  0  0  0  0  0
   -4.3678   26.7438   10.6400 H   0  0  0  0  0  0  0  0  0  0  0  0
    4.1738   24.3644    8.0673 H   0  0  0  0  0  0  0  0  0  0  0  0
    5.6689   23.7225    6.2150 H   0  0  0  0  0  0  0  0  0  0  0  0
    3.1336   26.5784    8.0972 H   0  0  0  0  0  0  0  0  0  0  0  0
    0.3786   27.8401   10.7665 H   0  0  0  0  0  0  0  0  0  0  0  0
   -3.5404   28.6499    9.3523 H   0  0  0  0  0  0  0  0  0  0  0  0
    5.0715   27.5518    4.4237 H   0  0  0  0  0  0  0  0  0  0  0  0
  1 16  1  0  0  0  0
  1 18  1  0  0  0  0
  2 17  1  0  0  0  0
  3 20  2  0  0  0  0
  4 19  1  0  0  0  0
  5 16  2  0  0  0  0
  5 19  1  0  0  0  0
  6 16  1  0  0  0  0
  6 21  1  0  0  0  0
  7  8  2  0  0  0  0
  7  9  1  0  0  0  0
  8 13  1  0  0  0  0
  9 14  2  0  0  0  0
 10 11  2  0  0  0  0
 10 12  1  0  0  0  0
 11 17  1  0  0  0  0
 12 21  2  0  0  0  0
 13 22  2  0  0  0  0
 14 22  1  0  0  0  0
 15 17  2  0  0  0  0
 15 21  1  0  0  0  0
 18 19  2  0  0  0  0
 18 20  1  0  0  0  0
 20 22  1  0  0  0  0
  4 23  1  0  0  0  0
  4 24  1  0  0  0  0
  6 25  1  0  0  0  0
  7 26  1  0  0  0  0
  8 27  1  0  0  0  0
  9 28  1  0  0  0  0
 10 29  1  0  0  0  0
 11 30  1  0  0  0  0
 12 31  1  0  0  0  0
 13 32  1  0  0  0  0
 14 33  1  0  0  0  0
 15 34  1  0  0  0  0
M  END
$$$$
