08Z_A_467
          05071912473D 1   1.00000     0.00000     0
            
 37 39  0  0  0  0            999 V2000
    1.0339   28.1241    8.0948 S   0  0  0  0  0  0  0  0  0  0  0  0
    6.5088   22.9563    5.6005 O   0  0  0  0  0  0  0  0  0  0  0  0
   -1.7591   30.8016    9.1247 O   0  0  0  0  0  0  0  0  0  0  0  0
    5.7262   22.5834    7.7176 N   0  0  0  0  0  0  0  0  0  0  0  0
    0.1032   31.7373    7.4117 N   0  0  0  0  0  0  0  0  0  0  0  0
   -3.3022   27.1710   10.9675 N   0  0  0  0  0  0  0  0  0  0  0  0
    1.7268   30.2582    6.7848 N   0  0  0  0  0  0  0  0  0  0  0  0
    3.2310   28.5127    6.4037 N   0  0  0  0  0  0  0  0  0  0  0  0
   -2.3961   26.4568   11.7366 C   0  0  0  0  0  0  0  0  0  0  0  0
   -2.9284   28.1999   10.1077 C   0  0  0  0  0  0  0  0  0  0  0  0
   -1.0159   26.7648   11.6685 C   0  0  0  0  0  0  0  0  0  0  0  0
   -0.5972   27.8046   10.8066 C   0  0  0  0  0  0  0  0  0  0  0  0
    4.5896   26.7830    5.3905 C   0  0  0  0  0  0  0  0  0  0  0  0
    3.7048   26.4354    7.6791 C   0  0  0  0  0  0  0  0  0  0  0  0
    5.2264   25.5133    5.4499 C   0  0  0  0  0  0  0  0  0  0  0  0
    4.3436   25.1687    7.7356 C   0  0  0  0  0  0  0  0  0  0  0  0
    2.0928   28.9873    7.0134 C   0  0  0  0  0  0  0  0  0  0  0  0
    5.7951   23.3605    6.6750 C   0  0  0  0  0  0  0  0  0  0  0  0
    0.1155   29.5448    8.2430 C   0  0  0  0  0  0  0  0  0  0  0  0
    0.6167   30.5750    7.4689 C   0  0  0  0  0  0  0  0  0  0  0  0
   -1.0868   29.6492    9.1168 C   0  0  0  0  0  0  0  0  0  0  0  0
    3.8112   27.2702    6.5065 C   0  0  0  0  0  0  0  0  0  0  0  0
    5.1115   24.6903    6.6270 C   0  0  0  0  0  0  0  0  0  0  0  0
   -1.5551   28.5414   10.0000 C   0  0  0  0  0  0  0  0  0  0  0  0
    5.2020   22.8686    8.5201 H   0  0  0  0  0  0  0  0  0  0  0  0
    6.1975   21.7014    7.7159 H   0  0  0  0  0  0  0  0  0  0  0  0
   -0.7248   31.9443    7.9328 H   0  0  0  0  0  0  0  0  0  0  0  0
    0.5276   32.4440    6.8456 H   0  0  0  0  0  0  0  0  0  0  0  0
    3.7009   29.1599    5.8035 H   0  0  0  0  0  0  0  0  0  0  0  0
   -2.7170   25.7254   12.3384 H   0  0  0  0  0  0  0  0  0  0  0  0
   -3.6169   28.6910    9.5741 H   0  0  0  0  0  0  0  0  0  0  0  0
   -0.3517   26.2579   12.2179 H   0  0  0  0  0  0  0  0  0  0  0  0
    0.3740   28.0366   10.7513 H   0  0  0  0  0  0  0  0  0  0  0  0
    4.6813   27.3446    4.5682 H   0  0  0  0  0  0  0  0  0  0  0  0
    3.1730   26.7540    8.4637 H   0  0  0  0  0  0  0  0  0  0  0  0
    5.7586   25.1885    4.6681 H   0  0  0  0  0  0  0  0  0  0  0  0
    4.2561   24.6058    8.5575 H   0  0  0  0  0  0  0  0  0  0  0  0
  1 17  1  0  0  0  0
  1 19  1  0  0  0  0
  2 18  2  0  0  0  0
  3 21  2  0  0  0  0
  4 18  1  0  0  0  0
  5 20  1  0  0  0  0
  6  9  2  0  0  0  0
  6 10  1  0  0  0  0
  7 17  2  0  0  0  0
  7 20  1  0  0  0  0
  8 17  1  0  0  0  0
  8 22  1  0  0  0  0
  9 11  1  0  0  0  0
 10 24  2  0  0  0  0
 11 12  2  0  0  0  0
 12 24  1  0  0  0  0
 13 15  1  0  0  0  0
 13 22  2  0  0  0  0
 14 16  2  0  0  0  0
 14 22  1  0  0  0  0
 15 23  2  0  0  0  0
 16 23  1  0  0  0  0
 18 23  1  0  0  0  0
 19 20  2  0  0  0  0
 19 21  1  0  0  0  0
 21 24  1  0  0  0  0
  4 25  1  0  0  0  0
  4 26  1  0  0  0  0
  5 27  1  0  0  0  0
  5 28  1  0  0  0  0
  8 29  1  0  0  0  0
  9 30  1  0  0  0  0
 10 31  1  0  0  0  0
 11 32  1  0  0  0  0
 12 33  1  0  0  0  0
 13 34  1  0  0  0  0
 14 35  1  0  0  0  0
 15 36  1  0  0  0  0
 16 37  1  0  0  0  0
M  END
$$$$
