09Z_A_483
          05071912473D 1   1.00000     0.00000     0
            
 32 33  0  0  0  0            999 V2000
    1.0260   27.9831    7.9200 S   0  0  0  0  0  0  0  0  0  0  0  0
   -1.6798   30.7166    9.1747 O   0  0  0  0  0  0  0  0  0  0  0  0
    0.1106   31.6343    7.3848 N   0  0  0  0  0  0  0  0  0  0  0  0
   -3.3017   27.0107   10.9270 N   0  0  0  0  0  0  0  0  0  0  0  0
    1.6750   30.1253    6.6377 N   0  0  0  0  0  0  0  0  0  0  0  0
    3.0931   28.2663    6.1509 N   0  0  0  0  0  0  0  0  0  0  0  0
    4.5604   26.4615    5.3787 C   0  0  0  0  0  0  0  0  0  0  0  0
    4.5085   27.0957    7.8328 C   0  0  0  0  0  0  0  0  0  0  0  0
   -2.3766   26.2539   11.6611 C   0  0  0  0  0  0  0  0  0  0  0  0
   -2.9270   28.0892   10.0703 C   0  0  0  0  0  0  0  0  0  0  0  0
   -0.9869   26.5513   11.5739 C   0  0  0  0  0  0  0  0  0  0  0  0
   -0.5603   27.6337   10.7206 C   0  0  0  0  0  0  0  0  0  0  0  0
    2.0132   28.8212    6.8249 C   0  0  0  0  0  0  0  0  0  0  0  0
    0.1352   29.4132    8.1500 C   0  0  0  0  0  0  0  0  0  0  0  0
    0.6136   30.4442    7.3865 C   0  0  0  0  0  0  0  0  0  0  0  0
    3.6583   26.9606    6.5428 C   0  0  0  0  0  0  0  0  0  0  0  0
   -1.0429   29.5268    9.0924 C   0  0  0  0  0  0  0  0  0  0  0  0
   -1.5203   28.4147    9.9516 C   0  0  0  0  0  0  0  0  0  0  0  0
   -0.6837   31.8423    7.9557 H   0  0  0  0  0  0  0  0  0  0  0  0
    0.5156   32.3475    6.8127 H   0  0  0  0  0  0  0  0  0  0  0  0
    3.4970   28.7628    5.3826 H   0  0  0  0  0  0  0  0  0  0  0  0
    4.9565   25.5757    5.6202 H   0  0  0  0  0  0  0  0  0  0  0  0
    4.0109   26.3658    4.5487 H   0  0  0  0  0  0  0  0  0  0  0  0
    5.2938   27.1221    5.2186 H   0  0  0  0  0  0  0  0  0  0  0  0
    4.8818   26.2018    8.0811 H   0  0  0  0  0  0  0  0  0  0  0  0
    5.2586   27.7372    7.6720 H   0  0  0  0  0  0  0  0  0  0  0  0
    3.9333   27.4351    8.5771 H   0  0  0  0  0  0  0  0  0  0  0  0
   -2.6928   25.5062   12.2451 H   0  0  0  0  0  0  0  0  0  0  0  0
   -3.6176   28.6068    9.5652 H   0  0  0  0  0  0  0  0  0  0  0  0
   -0.3188   26.0198   12.0946 H   0  0  0  0  0  0  0  0  0  0  0  0
    0.4134   27.8521   10.6556 H   0  0  0  0  0  0  0  0  0  0  0  0
    2.9172   26.3070    6.6966 H   0  0  0  0  0  0  0  0  0  0  0  0
  1 13  1  0  0  0  0
  1 14  1  0  0  0  0
  2 17  2  0  0  0  0
  3 15  1  0  0  0  0
  4  9  2  0  0  0  0
  4 10  1  0  0  0  0
  5 13  2  0  0  0  0
  5 15  1  0  0  0  0
  6 13  1  0  0  0  0
  6 16  1  0  0  0  0
  7 16  1  0  0  0  0
  8 16  1  0  0  0  0
  9 11  1  0  0  0  0
 10 18  2  0  0  0  0
 11 12  2  0  0  0  0
 12 18  1  0  0  0  0
 14 15  2  0  0  0  0
 14 17  1  0  0  0  0
 17 18  1  0  0  0  0
  3 19  1  0  0  0  0
  3 20  1  0  0  0  0
  6 21  1  0  0  0  0
  7 22  1  0  0  0  0
  7 23  1  0  0  0  0
  7 24  1  0  0  0  0
  8 25  1  0  0  0  0
  8 26  1  0  0  0  0
  8 27  1  0  0  0  0
  9 28  1  0  0  0  0
 10 29  1  0  0  0  0
 11 30  1  0  0  0  0
 12 31  1  0  0  0  0
 16 32  1  0  0  0  0
M  END
$$$$
