19Z_A_654
          05071912473D 1   1.00000     0.00000     0
            
 34 35  0  0  0  0            999 V2000
   -2.8343   27.7933    8.8855 O   0  5  0  0  0  0  0  0  0  0  0  0
   -2.0466   25.7860    9.6318 O   0  0  0  0  0  0  0  0  0  0  0  0
    1.8797   30.2806    6.0291 O   0  0  0  0  0  0  0  0  0  0  0  0
    5.0020   23.3316    3.5963 O   0  0  0  0  0  0  0  0  0  0  0  0
    0.2519   31.1456    7.2927 N   0  0  0  0  0  0  0  0  0  0  0  0
    3.1871   28.2534    7.2218 N   0  0  0  0  0  0  0  0  0  0  0  0
   -1.8192   26.9454    9.0366 N   0  3  0  0  0  0  0  0  0  0  0  0
    4.4265   27.4573    7.4907 C   0  0  0  0  0  0  0  0  0  0  0  0
    4.8318   25.6704    4.1054 C   0  0  0  0  0  0  0  0  0  0  0  0
    4.7695   23.9783    5.9018 C   0  0  0  0  0  0  0  0  0  0  0  0
    1.7382   26.6666    8.3083 C   0  0  0  0  0  0  0  0  0  0  0  0
    0.4411   26.3328    8.7764 C   0  0  0  0  0  0  0  0  0  0  0  0
    4.6907   26.7017    5.0726 C   0  0  0  0  0  0  0  0  0  0  0  0
    4.6294   25.0076    6.8691 C   0  0  0  0  0  0  0  0  0  0  0  0
   -0.4048   28.4981    7.9733 C   0  0  0  0  0  0  0  0  0  0  0  0
    1.0477   30.0949    6.8918 C   0  0  0  0  0  0  0  0  0  0  0  0
    4.8708   24.3101    4.5179 C   0  0  0  0  0  0  0  0  0  0  0  0
    1.9913   27.9343    7.6570 C   0  0  0  0  0  0  0  0  0  0  0  0
   -0.6436   27.2444    8.6140 C   0  0  0  0  0  0  0  0  0  0  0  0
    4.5884   26.3719    6.4574 C   0  0  0  0  0  0  0  0  0  0  0  0
    0.8914   28.8587    7.4936 C   0  0  0  0  0  0  0  0  0  0  0  0
    5.0297   22.3743    3.8839 H   0  0  0  0  0  0  0  0  0  0  0  0
   -0.4383   31.0075    8.0029 H   0  0  0  0  0  0  0  0  0  0  0  0
    0.3645   32.0465    6.8734 H   0  0  0  0  0  0  0  0  0  0  0  0
    3.2770   29.0846    6.6732 H   0  0  0  0  0  0  0  0  0  0  0  0
    4.3608   27.0416    8.3978 H   0  0  0  0  0  0  0  0  0  0  0  0
    5.2210   28.0638    7.4588 H   0  0  0  0  0  0  0  0  0  0  0  0
    4.9036   25.9011    3.1350 H   0  0  0  0  0  0  0  0  0  0  0  0
    4.7972   23.0212    6.1901 H   0  0  0  0  0  0  0  0  0  0  0  0
    2.4884   26.0168    8.4301 H   0  0  0  0  0  0  0  0  0  0  0  0
    0.2863   25.4518    9.2236 H   0  0  0  0  0  0  0  0  0  0  0  0
    4.6631   27.6585    4.7831 H   0  0  0  0  0  0  0  0  0  0  0  0
    4.5596   24.7759    7.8394 H   0  0  0  0  0  0  0  0  0  0  0  0
   -1.1635   29.1391    7.8577 H   0  0  0  0  0  0  0  0  0  0  0  0
  1  7  1  0  0  0  0
  2  7  2  0  0  0  0
  3 16  2  0  0  0  0
  4 17  1  0  0  0  0
  5 16  1  0  0  0  0
  6  8  1  0  0  0  0
  6 18  1  0  0  0  0
  7 19  1  0  0  0  0
  8 20  1  0  0  0  0
  9 13  1  0  0  0  0
  9 17  2  0  0  0  0
 10 14  2  0  0  0  0
 10 17  1  0  0  0  0
 11 12  1  0  0  0  0
 11 18  2  0  0  0  0
 12 19  2  0  0  0  0
 13 20  2  0  0  0  0
 14 20  1  0  0  0  0
 15 19  1  0  0  0  0
 15 21  2  0  0  0  0
 16 21  1  0  0  0  0
 18 21  1  0  0  0  0
  4 22  1  0  0  0  0
  5 23  1  0  0  0  0
  5 24  1  0  0  0  0
  6 25  1  0  0  0  0
  8 26  1  0  0  0  0
  8 27  1  0  0  0  0
  9 28  1  0  0  0  0
 10 29  1  0  0  0  0
 11 30  1  0  0  0  0
 12 31  1  0  0  0  0
 13 32  1  0  0  0  0
 14 33  1  0  0  0  0
 15 34  1  0  0  0  0
M  CHG  2   1  -1   7   1
M  END
$$$$
