24Z_A_778
          05071912473D 1   1.00000     0.00000     0
            
 46 47  0  0  0  0            999 V2000
   -2.6073   27.4922    8.8619 O   0  5  0  0  0  0  0  0  0  0  0  0
   -1.6913   25.6707    9.8315 O   0  0  0  0  0  0  0  0  0  0  0  0
    1.2043   20.1035   10.6972 O   0  0  0  0  0  0  0  0  0  0  0  0
    2.8799   20.6408   12.0343 O   0  0  0  0  0  0  0  0  0  0  0  0
    1.9455   30.3929    6.1427 O   0  0  0  0  0  0  0  0  0  0  0  0
    0.1620   31.0469    7.2564 N   0  0  0  0  0  0  0  0  0  0  0  0
    4.9360   25.6358    4.3541 N   0  0  0  0  0  0  0  0  0  0  0  0
    0.7053   25.1032    9.4076 N   0  0  0  0  0  0  0  0  0  0  0  0
    3.3457   28.3963    7.2381 N   0  0  0  0  0  0  0  0  0  0  0  0
   -1.5378   26.7563    9.1238 N   0  3  0  0  0  0  0  0  0  0  0  0
    5.3441   24.4382    4.8875 C   0  0  0  0  0  0  0  0  0  0  0  0
    1.6554   24.6942   10.4644 C   0  0  0  0  0  0  0  0  0  0  0  0
    4.7254   26.6861    5.2238 C   0  0  0  0  0  0  0  0  0  0  0  0
    4.6577   27.7515    7.5470 C   0  0  0  0  0  0  0  0  0  0  0  0
    5.5542   24.2316    6.2631 C   0  0  0  0  0  0  0  0  0  0  0  0
    2.0153   23.2215   10.3053 C   0  0  0  0  0  0  0  0  0  0  0  0
    1.4454   22.4386   11.4850 C   0  0  0  0  0  0  0  0  0  0  0  0
    5.3302   25.3207    7.1296 C   0  0  0  0  0  0  0  0  0  0  0  0
    2.0412   26.7167    8.3344 C   0  0  0  0  0  0  0  0  0  0  0  0
   -0.2351   28.3843    8.0484 C   0  0  0  0  0  0  0  0  0  0  0  0
    1.8964   20.9930   11.4229 C   0  0  0  0  0  0  0  0  0  0  0  0
    1.0852   30.1029    6.9408 C   0  0  0  0  0  0  0  0  0  0  0  0
    0.7871   26.2655    8.8335 C   0  0  0  0  0  0  0  0  0  0  0  0
    2.1893   27.9975    7.6879 C   0  0  0  0  0  0  0  0  0  0  0  0
   -0.3773   27.1135    8.6900 C   0  0  0  0  0  0  0  0  0  0  0  0
    4.9097   26.5765    6.6168 C   0  0  0  0  0  0  0  0  0  0  0  0
    1.0269   28.8415    7.5465 C   0  0  0  0  0  0  0  0  0  0  0  0
    0.3917   20.3943   10.1921 H   0  0  0  0  0  0  0  0  0  0  0  0
   -0.5625   30.8379    7.9132 H   0  0  0  0  0  0  0  0  0  0  0  0
    0.2064   31.9513    6.8320 H   0  0  0  0  0  0  0  0  0  0  0  0
   -0.0168   24.4703    9.1285 H   0  0  0  0  0  0  0  0  0  0  0  0
    3.3556   29.1969    6.6391 H   0  0  0  0  0  0  0  0  0  0  0  0
    5.5004   23.6716    4.2647 H   0  0  0  0  0  0  0  0  0  0  0  0
    1.2347   24.8368   11.3603 H   0  0  0  0  0  0  0  0  0  0  0  0
    2.4858   25.2470   10.3943 H   0  0  0  0  0  0  0  0  0  0  0  0
    4.4288   27.5645    4.8489 H   0  0  0  0  0  0  0  0  0  0  0  0
    4.6492   27.4260    8.4925 H   0  0  0  0  0  0  0  0  0  0  0  0
    5.3891   28.4238    7.4325 H   0  0  0  0  0  0  0  0  0  0  0  0
    5.8519   23.3437    6.6137 H   0  0  0  0  0  0  0  0  0  0  0  0
    3.0099   23.1201   10.2850 H   0  0  0  0  0  0  0  0  0  0  0  0
    1.6272   22.8721    9.4525 H   0  0  0  0  0  0  0  0  0  0  0  0
    0.4466   22.4744   11.4532 H   0  0  0  0  0  0  0  0  0  0  0  0
    1.7666   22.8481   12.3389 H   0  0  0  0  0  0  0  0  0  0  0  0
    5.4685   25.2081    8.1136 H   0  0  0  0  0  0  0  0  0  0  0  0
    2.8434   26.1283    8.4351 H   0  0  0  0  0  0  0  0  0  0  0  0
   -1.0392   28.9701    7.9473 H   0  0  0  0  0  0  0  0  0  0  0  0
  1 10  1  0  0  0  0
  2 10  2  0  0  0  0
  3 21  1  0  0  0  0
  4 21  2  0  0  0  0
  5 22  2  0  0  0  0
  6 22  1  0  0  0  0
  7 11  2  0  0  0  0
  7 13  1  0  0  0  0
  8 12  1  0  0  0  0
  8 23  1  0  0  0  0
  9 14  1  0  0  0  0
  9 24  1  0  0  0  0
 10 25  1  0  0  0  0
 11 15  1  0  0  0  0
 12 16  1  0  0  0  0
 13 26  2  0  0  0  0
 14 26  1  0  0  0  0
 15 18  2  0  0  0  0
 16 17  1  0  0  0  0
 17 21  1  0  0  0  0
 18 26  1  0  0  0  0
 19 23  2  0  0  0  0
 19 24  1  0  0  0  0
 20 25  2  0  0  0  0
 20 27  1  0  0  0  0
 22 27  1  0  0  0  0
 23 25  1  0  0  0  0
 24 27  2  0  0  0  0
  3 28  1  0  0  0  0
  6 29  1  0  0  0  0
  6 30  1  0  0  0  0
  8 31  1  0  0  0  0
  9 32  1  0  0  0  0
 11 33  1  0  0  0  0
 12 34  1  0  0  0  0
 12 35  1  0  0  0  0
 13 36  1  0  0  0  0
 14 37  1  0  0  0  0
 14 38  1  0  0  0  0
 15 39  1  0  0  0  0
 16 40  1  0  0  0  0
 16 41  1  0  0  0  0
 17 42  1  0  0  0  0
 17 43  1  0  0  0  0
 18 44  1  0  0  0  0
 19 45  1  0  0  0  0
 20 46  1  0  0  0  0
M  CHG  2   1  -1  10   1
M  END
$$$$
