26Z_A_495
          05071912473D 1   1.00000     0.00000     0
            
 41 43  0  0  0  0            999 V2000
    0.9329   28.1632    7.8623 S   0  0  0  0  0  0  0  0  0  0  0  0
    6.5717   23.9244    7.3776 S   0  0  0  0  0  0  0  0  0  0  0  0
    7.6197   24.4385    8.2306 O   0  0  0  0  0  0  0  0  0  0  0  0
    7.1474   23.4165    6.1358 O   0  0  0  0  0  0  0  0  0  0  0  0
   -1.7640   30.7621    9.0173 O   0  0  0  0  0  0  0  0  0  0  0  0
    5.7266   22.7122    8.1954 N   0  0  0  0  0  0  0  0  0  0  0  0
   -0.4486   25.9485   12.0050 N   0  0  0  0  0  0  0  0  0  0  0  0
    0.1689   31.8401    7.5263 N   0  0  0  0  0  0  0  0  0  0  0  0
    1.7575   30.3189    6.7454 N   0  0  0  0  0  0  0  0  0  0  0  0
    3.0562   28.5236    6.2237 N   0  0  0  0  0  0  0  0  0  0  0  0
   -3.5044   27.2404   10.5469 C   0  0  0  0  0  0  0  0  0  0  0  0
   -2.6257   26.4240   11.3093 C   0  0  0  0  0  0  0  0  0  0  0  0
    4.4529   25.5875    7.9593 C   0  0  0  0  0  0  0  0  0  0  0  0
    5.6861   26.0595    5.8819 C   0  0  0  0  0  0  0  0  0  0  0  0
   -3.0036   28.3279    9.7818 C   0  0  0  0  0  0  0  0  0  0  0  0
    3.6016   26.6865    7.7046 C   0  0  0  0  0  0  0  0  0  0  0  0
    4.8469   27.1477    5.6268 C   0  0  0  0  0  0  0  0  0  0  0  0
   -0.7207   27.7929   10.5446 C   0  0  0  0  0  0  0  0  0  0  0  0
    2.0267   29.0405    6.8600 C   0  0  0  0  0  0  0  0  0  0  0  0
    5.4936   25.2795    7.0474 C   0  0  0  0  0  0  0  0  0  0  0  0
    0.0121   29.6000    8.1826 C   0  0  0  0  0  0  0  0  0  0  0  0
   -1.2366   26.6943   11.3141 C   0  0  0  0  0  0  0  0  0  0  0  0
    0.6161   30.6490    7.4915 C   0  0  0  0  0  0  0  0  0  0  0  0
   -1.1385   29.6992    8.9922 C   0  0  0  0  0  0  0  0  0  0  0  0
    3.7883   27.4874    6.5297 C   0  0  0  0  0  0  0  0  0  0  0  0
   -1.6088   28.6211    9.7657 C   0  0  0  0  0  0  0  0  0  0  0  0
    5.0014   22.3558    7.6063 H   0  0  0  0  0  0  0  0  0  0  0  0
    6.3547   21.9720    8.4358 H   0  0  0  0  0  0  0  0  0  0  0  0
    0.5343   26.1327   12.0137 H   0  0  0  0  0  0  0  0  0  0  0  0
   -0.8188   25.1845   12.5334 H   0  0  0  0  0  0  0  0  0  0  0  0
   -0.6465   32.0525    8.0648 H   0  0  0  0  0  0  0  0  0  0  0  0
    0.6328   32.5635    7.0150 H   0  0  0  0  0  0  0  0  0  0  0  0
    3.3161   28.9946    5.3807 H   0  0  0  0  0  0  0  0  0  0  0  0
   -4.4856   27.0474   10.5489 H   0  0  0  0  0  0  0  0  0  0  0  0
   -2.9887   25.6594   11.8418 H   0  0  0  0  0  0  0  0  0  0  0  0
    4.3218   25.0298    8.7789 H   0  0  0  0  0  0  0  0  0  0  0  0
    6.4208   25.8325    5.2426 H   0  0  0  0  0  0  0  0  0  0  0  0
   -3.6350   28.8924    9.2501 H   0  0  0  0  0  0  0  0  0  0  0  0
    2.8665   26.9064    8.3458 H   0  0  0  0  0  0  0  0  0  0  0  0
    4.9875   27.6965    4.8027 H   0  0  0  0  0  0  0  0  0  0  0  0
    0.2607   27.9847   10.5491 H   0  0  0  0  0  0  0  0  0  0  0  0
  1 19  1  0  0  0  0
  1 21  1  0  0  0  0
  2  3  2  0  0  0  0
  2  4  2  0  0  0  0
  2  6  1  0  0  0  0
  2 20  1  0  0  0  0
  5 24  2  0  0  0  0
  7 22  1  0  0  0  0
  8 23  1  0  0  0  0
  9 19  2  0  0  0  0
  9 23  1  0  0  0  0
 10 19  1  0  0  0  0
 10 25  1  0  0  0  0
 11 12  1  0  0  0  0
 11 15  2  0  0  0  0
 12 22  2  0  0  0  0
 13 16  1  0  0  0  0
 13 20  2  0  0  0  0
 14 17  2  0  0  0  0
 14 20  1  0  0  0  0
 15 26  1  0  0  0  0
 16 25  2  0  0  0  0
 17 25  1  0  0  0  0
 18 22  1  0  0  0  0
 18 26  2  0  0  0  0
 21 23  2  0  0  0  0
 21 24  1  0  0  0  0
 24 26  1  0  0  0  0
  6 27  1  0  0  0  0
  6 28  1  0  0  0  0
  7 29  1  0  0  0  0
  7 30  1  0  0  0  0
  8 31  1  0  0  0  0
  8 32  1  0  0  0  0
 10 33  1  0  0  0  0
 11 34  1  0  0  0  0
 12 35  1  0  0  0  0
 13 36  1  0  0  0  0
 14 37  1  0  0  0  0
 15 38  1  0  0  0  0
 16 39  1  0  0  0  0
 17 40  1  0  0  0  0
 18 41  1  0  0  0  0
M  END
$$$$
