27Z_A_470
          05071912473D 1   1.00000     0.00000     0
            
 31 32  0  0  0  0            999 V2000
    0.9506   28.0658    7.8852 S   0  0  0  0  0  0  0  0  0  0  0  0
    6.5939   23.8525    7.3091 S   0  0  0  0  0  0  0  0  0  0  0  0
    7.7337   24.3535    8.3127 O   0  0  0  0  0  0  0  0  0  0  0  0
    7.2570   23.3676    5.8998 O   0  0  0  0  0  0  0  0  0  0  0  0
   -1.8460   30.5704    9.1364 O   0  0  0  0  0  0  0  0  0  0  0  0
    5.8123   22.6926    7.9932 N   0  0  0  0  0  0  0  0  0  0  0  0
   -1.5585   28.3836    9.5846 N   0  0  0  0  0  0  0  0  0  0  0  0
    0.0571   31.7996    7.4670 N   0  0  0  0  0  0  0  0  0  0  0  0
    1.6806   30.2566    6.7557 N   0  0  0  0  0  0  0  0  0  0  0  0
    3.1172   28.4839    6.2314 N   0  0  0  0  0  0  0  0  0  0  0  0
    4.5230   25.3686    7.9568 C   0  0  0  0  0  0  0  0  0  0  0  0
    5.8606   25.9719    5.8801 C   0  0  0  0  0  0  0  0  0  0  0  0
    3.6756   26.4800    7.7151 C   0  0  0  0  0  0  0  0  0  0  0  0
    5.0124   27.0971    5.6301 C   0  0  0  0  0  0  0  0  0  0  0  0
    2.0115   28.9724    6.8838 C   0  0  0  0  0  0  0  0  0  0  0  0
    5.6291   25.1002    7.0402 C   0  0  0  0  0  0  0  0  0  0  0  0
    0.0216   29.4826    8.1398 C   0  0  0  0  0  0  0  0  0  0  0  0
   -1.2032   29.5233    8.9900 C   0  0  0  0  0  0  0  0  0  0  0  0
    0.5628   30.5541    7.4569 C   0  0  0  0  0  0  0  0  0  0  0  0
    3.8947   27.3911    6.5326 C   0  0  0  0  0  0  0  0  0  0  0  0
    5.0942   22.3665    7.3784 H   0  0  0  0  0  0  0  0  0  0  0  0
    6.4411   21.9426    8.1987 H   0  0  0  0  0  0  0  0  0  0  0  0
   -1.0155   27.5558    9.4440 H   0  0  0  0  0  0  0  0  0  0  0  0
   -2.3680   28.3570   10.1712 H   0  0  0  0  0  0  0  0  0  0  0  0
   -0.7705   31.9990    7.9918 H   0  0  0  0  0  0  0  0  0  0  0  0
    0.5084   32.5267    6.9496 H   0  0  0  0  0  0  0  0  0  0  0  0
    3.3969   28.9974    5.4202 H   0  0  0  0  0  0  0  0  0  0  0  0
    4.3652   24.7750    8.7459 H   0  0  0  0  0  0  0  0  0  0  0  0
    6.6192   25.7767    5.2584 H   0  0  0  0  0  0  0  0  0  0  0  0
    2.9177   26.6635    8.3411 H   0  0  0  0  0  0  0  0  0  0  0  0
    5.1823   27.6840    4.8385 H   0  0  0  0  0  0  0  0  0  0  0  0
  1 15  1  0  0  0  0
  1 17  1  0  0  0  0
  2  3  2  0  0  0  0
  2  4  2  0  0  0  0
  2  6  1  0  0  0  0
  2 16  1  0  0  0  0
  5 18  2  0  0  0  0
  7 18  1  0  0  0  0
  8 19  1  0  0  0  0
  9 15  2  0  0  0  0
  9 19  1  0  0  0  0
 10 15  1  0  0  0  0
 10 20  1  0  0  0  0
 11 13  1  0  0  0  0
 11 16  2  0  0  0  0
 12 14  2  0  0  0  0
 12 16  1  0  0  0  0
 13 20  2  0  0  0  0
 14 20  1  0  0  0  0
 17 18  1  0  0  0  0
 17 19  2  0  0  0  0
  6 21  1  0  0  0  0
  6 22  1  0  0  0  0
  7 23  1  0  0  0  0
  7 24  1  0  0  0  0
  8 25  1  0  0  0  0
  8 26  1  0  0  0  0
 10 27  1  0  0  0  0
 11 28  1  0  0  0  0
 12 29  1  0  0  0  0
 13 30  1  0  0  0  0
 14 31  1  0  0  0  0
M  END
$$$$
