02Z_A_458
          05071912473D 1   1.00000     0.00000     0
            
 26 27  0  0  0  0            999 V2000
    1.1845   28.1346    7.8874 S   0  0  0  0  0  0  0  0  0  0  0  0
   -1.6993   30.4693    9.2154 O   0  0  0  0  0  0  0  0  0  0  0  0
   -1.2451   28.3001    9.6640 N   0  0  0  0  0  0  0  0  0  0  0  0
    0.1024   31.7863    7.4103 N   0  0  0  0  0  0  0  0  0  0  0  0
    1.7928   30.3170    6.6769 N   0  0  0  0  0  0  0  0  0  0  0  0
    3.2931   28.5578    6.1553 N   0  0  0  0  0  0  0  0  0  0  0  0
    5.7070   25.0056    6.6324 C   0  0  0  0  0  0  0  0  0  0  0  0
    4.6176   25.2280    7.6124 C   0  0  0  0  0  0  0  0  0  0  0  0
    5.9508   25.9820    5.5390 C   0  0  0  0  0  0  0  0  0  0  0  0
    3.8016   26.3916    7.4881 C   0  0  0  0  0  0  0  0  0  0  0  0
    5.1330   27.1674    5.4091 C   0  0  0  0  0  0  0  0  0  0  0  0
    2.1855   29.0504    6.8332 C   0  0  0  0  0  0  0  0  0  0  0  0
   -0.9937   29.4640    9.0476 C   0  0  0  0  0  0  0  0  0  0  0  0
    0.2039   29.4928    8.1437 C   0  0  0  0  0  0  0  0  0  0  0  0
    0.6714   30.5801    7.4132 C   0  0  0  0  0  0  0  0  0  0  0  0
    4.0334   27.4173    6.3669 C   0  0  0  0  0  0  0  0  0  0  0  0
   -0.6525   27.5108    9.5030 H   0  0  0  0  0  0  0  0  0  0  0  0
   -2.0252   28.2213   10.2847 H   0  0  0  0  0  0  0  0  0  0  0  0
   -0.7176   31.9537    7.9576 H   0  0  0  0  0  0  0  0  0  0  0  0
    0.4959   32.5234    6.8609 H   0  0  0  0  0  0  0  0  0  0  0  0
    3.6024   29.1228    5.3904 H   0  0  0  0  0  0  0  0  0  0  0  0
    6.2829   24.1915    6.7076 H   0  0  0  0  0  0  0  0  0  0  0  0
    4.4569   24.5721    8.3499 H   0  0  0  0  0  0  0  0  0  0  0  0
    6.6893   25.8173    4.8852 H   0  0  0  0  0  0  0  0  0  0  0  0
    3.0627   26.5433    8.1447 H   0  0  0  0  0  0  0  0  0  0  0  0
    5.3107   27.8188    4.6714 H   0  0  0  0  0  0  0  0  0  0  0  0
  1 12  1  0  0  0  0
  1 14  1  0  0  0  0
  2 13  2  0  0  0  0
  3 13  1  0  0  0  0
  4 15  1  0  0  0  0
  5 12  2  0  0  0  0
  5 15  1  0  0  0  0
  6 12  1  0  0  0  0
  6 16  1  0  0  0  0
  7  8  2  0  0  0  0
  7  9  1  0  0  0  0
  8 10  1  0  0  0  0
  9 11  2  0  0  0  0
 10 16  2  0  0  0  0
 11 16  1  0  0  0  0
 13 14  1  0  0  0  0
 14 15  2  0  0  0  0
  3 17  1  0  0  0  0
  3 18  1  0  0  0  0
  4 19  1  0  0  0  0
  4 20  1  0  0  0  0
  6 21  1  0  0  0  0
  7 22  1  0  0  0  0
  8 23  1  0  0  0  0
  9 24  1  0  0  0  0
 10 25  1  0  0  0  0
 11 26  1  0  0  0  0
M  END
$$$$
