50Z_A_446
          05071912473D 1   1.00000     0.00000     0
            
 32 33  0  0  0  0            999 V2000
    1.4518   27.9518    7.6225 S   0  0  0  0  0  0  0  0  0  0  0  0
   -1.1365   30.3003    9.5208 O   0  0  0  0  0  0  0  0  0  0  0  0
    0.4178   31.7077    7.6349 N   0  0  0  0  0  0  0  0  0  0  0  0
    3.3307   28.5519    5.7242 N   0  0  0  0  0  0  0  0  0  0  0  0
   -0.4653   26.6433    9.1885 N   0  0  0  0  0  0  0  0  0  0  0  0
    1.9335   30.2716    6.5774 N   0  0  0  0  0  0  0  0  0  0  0  0
    4.3159   25.7687    7.8288 C   0  0  0  0  0  0  0  0  0  0  0  0
    3.7725   27.1624    5.6975 C   0  0  0  0  0  0  0  0  0  0  0  0
   -0.7738   25.4187    9.8460 C   0  0  0  0  0  0  0  0  0  0  0  0
    4.6679   26.8390    6.8747 C   0  0  0  0  0  0  0  0  0  0  0  0
   -1.3776   25.4435   11.0855 C   0  0  0  0  0  0  0  0  0  0  0  0
   -1.6890   26.6357   11.7028 C   0  0  0  0  0  0  0  0  0  0  0  0
   -1.3959   27.8830   11.0782 C   0  0  0  0  0  0  0  0  0  0  0  0
    2.3169   28.9776    6.5532 C   0  0  0  0  0  0  0  0  0  0  0  0
    0.5317   29.3087    8.1449 C   0  0  0  0  0  0  0  0  0  0  0  0
    0.9352   30.4711    7.4611 C   0  0  0  0  0  0  0  0  0  0  0  0
   -0.4433   29.2013    9.1160 C   0  0  0  0  0  0  0  0  0  0  0  0
   -0.7716   27.8972    9.7939 C   0  0  0  0  0  0  0  0  0  0  0  0
   -0.3227   31.8522    8.2912 H   0  0  0  0  0  0  0  0  0  0  0  0
    0.7755   32.4781    7.1071 H   0  0  0  0  0  0  0  0  0  0  0  0
    3.7769   29.2149    5.1231 H   0  0  0  0  0  0  0  0  0  0  0  0
    5.0231   25.7039    8.5329 H   0  0  0  0  0  0  0  0  0  0  0  0
    3.4373   25.9798    8.2573 H   0  0  0  0  0  0  0  0  0  0  0  0
    4.2489   24.8974    7.3426 H   0  0  0  0  0  0  0  0  0  0  0  0
    4.2784   26.9990    4.8506 H   0  0  0  0  0  0  0  0  0  0  0  0
    2.9702   26.5662    5.7268 H   0  0  0  0  0  0  0  0  0  0  0  0
   -0.5539   24.5453    9.4113 H   0  0  0  0  0  0  0  0  0  0  0  0
    5.5609   26.5979    6.4944 H   0  0  0  0  0  0  0  0  0  0  0  0
    4.7493   27.6803    7.4091 H   0  0  0  0  0  0  0  0  0  0  0  0
   -1.5932   24.5816   11.5444 H   0  0  0  0  0  0  0  0  0  0  0  0
   -2.1268   26.6255   12.6018 H   0  0  0  0  0  0  0  0  0  0  0  0
   -1.6257   28.7418   11.5360 H   0  0  0  0  0  0  0  0  0  0  0  0
  1 14  1  0  0  0  0
  1 15  1  0  0  0  0
  2 17  2  0  0  0  0
  3 16  1  0  0  0  0
  4  8  1  0  0  0  0
  4 14  1  0  0  0  0
  5  9  1  0  0  0  0
  5 18  2  0  0  0  0
  6 14  2  0  0  0  0
  6 16  1  0  0  0  0
  7 10  1  0  0  0  0
  8 10  1  0  0  0  0
  9 11  2  0  0  0  0
 11 12  1  0  0  0  0
 12 13  2  0  0  0  0
 13 18  1  0  0  0  0
 15 16  2  0  0  0  0
 15 17  1  0  0  0  0
 17 18  1  0  0  0  0
  3 19  1  0  0  0  0
  3 20  1  0  0  0  0
  4 21  1  0  0  0  0
  7 22  1  0  0  0  0
  7 23  1  0  0  0  0
  7 24  1  0  0  0  0
  8 25  1  0  0  0  0
  8 26  1  0  0  0  0
  9 27  1  0  0  0  0
 10 28  1  0  0  0  0
 10 29  1  0  0  0  0
 11 30  1  0  0  0  0
 12 31  1  0  0  0  0
 13 32  1  0  0  0  0
M  END
$$$$
