99Z_A_456
          05071912473D 1   1.00000     0.00000     0
            
 42 44  0  0  0  0            999 V2000
    0.9496   28.1688    7.9389 S   0  0  0  0  0  0  0  0  0  0  0  0
    6.6586   23.9046    7.3705 S   0  0  0  0  0  0  0  0  0  0  0  0
    7.0514   23.1641    6.1799 O   0  0  0  0  0  0  0  0  0  0  0  0
    7.4272   24.3569    8.5231 O   0  0  0  0  0  0  0  0  0  0  0  0
   -1.6184   30.8433    9.2519 O   0  0  0  0  0  0  0  0  0  0  0  0
    5.9599   22.6918    8.1332 N   0  0  0  0  0  0  0  0  0  0  0  0
    0.0485   31.9242    7.4957 N   0  0  0  0  0  0  0  0  0  0  0  0
    1.7126   30.2316    6.6643 N   0  0  0  0  0  0  0  0  0  0  0  0
    3.0698   28.3794    6.1658 N   0  0  0  0  0  0  0  0  0  0  0  0
   -3.9123   28.6324    8.9763 C   0  0  0  0  0  0  0  0  0  0  0  0
   -2.2017   26.3523   11.5804 C   0  0  0  0  0  0  0  0  0  0  0  0
   -0.8904   26.8702   11.6676 C   0  0  0  0  0  0  0  0  0  0  0  0
    4.5239   25.4762    7.9682 C   0  0  0  0  0  0  0  0  0  0  0  0
    5.7467   25.9422    5.8765 C   0  0  0  0  0  0  0  0  0  0  0  0
   -3.1585   26.9250   10.7205 C   0  0  0  0  0  0  0  0  0  0  0  0
   -0.5464   27.9888   10.8584 C   0  0  0  0  0  0  0  0  0  0  0  0
    3.6580   26.5389    7.7097 C   0  0  0  0  0  0  0  0  0  0  0  0
    4.8945   26.9969    5.6046 C   0  0  0  0  0  0  0  0  0  0  0  0
    1.9890   28.8994    6.8681 C   0  0  0  0  0  0  0  0  0  0  0  0
    0.0848   29.5299    8.2299 C   0  0  0  0  0  0  0  0  0  0  0  0
    5.5496   25.2037    7.0513 C   0  0  0  0  0  0  0  0  0  0  0  0
    0.5699   30.6313    7.4689 C   0  0  0  0  0  0  0  0  0  0  0  0
   -1.0793   29.7255    9.1628 C   0  0  0  0  0  0  0  0  0  0  0  0
    3.8695   27.2814    6.5265 C   0  0  0  0  0  0  0  0  0  0  0  0
   -2.8473   28.0364    9.9059 C   0  0  0  0  0  0  0  0  0  0  0  0
   -1.5236   28.5584    9.9856 C   0  0  0  0  0  0  0  0  0  0  0  0
    5.6085   23.0099    9.0138 H   0  0  0  0  0  0  0  0  0  0  0  0
    5.2043   22.3411    7.5799 H   0  0  0  0  0  0  0  0  0  0  0  0
   -0.7413   32.1330    8.0725 H   0  0  0  0  0  0  0  0  0  0  0  0
    0.4643   32.6427    6.9380 H   0  0  0  0  0  0  0  0  0  0  0  0
    3.3047   28.8375    5.3085 H   0  0  0  0  0  0  0  0  0  0  0  0
   -3.5235   29.4069    8.4773 H   0  0  0  0  0  0  0  0  0  0  0  0
   -4.2152   27.9354    8.3263 H   0  0  0  0  0  0  0  0  0  0  0  0
   -4.6924   28.9434    9.5192 H   0  0  0  0  0  0  0  0  0  0  0  0
   -2.4555   25.5635   12.1402 H   0  0  0  0  0  0  0  0  0  0  0  0
   -0.2187   26.4598   12.2844 H   0  0  0  0  0  0  0  0  0  0  0  0
    4.4154   24.9193    8.7917 H   0  0  0  0  0  0  0  0  0  0  0  0
    6.4889   25.7110    5.2474 H   0  0  0  0  0  0  0  0  0  0  0  0
   -4.0792   26.5362   10.6858 H   0  0  0  0  0  0  0  0  0  0  0  0
    0.3752   28.3745   10.9004 H   0  0  0  0  0  0  0  0  0  0  0  0
    2.9148   26.7667    8.3388 H   0  0  0  0  0  0  0  0  0  0  0  0
    5.0036   27.5435    4.7743 H   0  0  0  0  0  0  0  0  0  0  0  0
  1 19  1  0  0  0  0
  1 20  1  0  0  0  0
  2  3  2  0  0  0  0
  2  4  2  0  0  0  0
  2  6  1  0  0  0  0
  2 21  1  0  0  0  0
  5 23  2  0  0  0  0
  7 22  1  0  0  0  0
  8 19  2  0  0  0  0
  8 22  1  0  0  0  0
  9 19  1  0  0  0  0
  9 24  1  0  0  0  0
 10 25  1  0  0  0  0
 11 12  2  0  0  0  0
 11 15  1  0  0  0  0
 12 16  1  0  0  0  0
 13 17  1  0  0  0  0
 13 21  2  0  0  0  0
 14 18  2  0  0  0  0
 14 21  1  0  0  0  0
 15 25  2  0  0  0  0
 16 26  2  0  0  0  0
 17 24  2  0  0  0  0
 18 24  1  0  0  0  0
 20 22  2  0  0  0  0
 20 23  1  0  0  0  0
 23 26  1  0  0  0  0
 25 26  1  0  0  0  0
  6 27  1  0  0  0  0
  6 28  1  0  0  0  0
  7 29  1  0  0  0  0
  7 30  1  0  0  0  0
  9 31  1  0  0  0  0
 10 32  1  0  0  0  0
 10 33  1  0  0  0  0
 10 34  1  0  0  0  0
 11 35  1  0  0  0  0
 12 36  1  0  0  0  0
 13 37  1  0  0  0  0
 14 38  1  0  0  0  0
 15 39  1  0  0  0  0
 16 40  1  0  0  0  0
 17 41  1  0  0  0  0
 18 42  1  0  0  0  0
M  END
$$$$
