B49_A_299
          05071912473D 1   1.00000     0.00000     0
            
 58 60  0  0  0  0            999 V2000
   -3.3451   29.3367   10.7216 F   0  0  0  0  0  0  0  0  0  0  0  0
    6.3632   24.6785    7.5964 O   0  0  0  0  0  0  0  0  0  0  0  0
    2.4062   29.9977    6.3216 O   0  0  0  0  0  0  0  0  0  0  0  0
    4.5835   23.1581    7.8769 N   0  0  0  0  0  0  0  0  0  0  0  0
    0.5092   31.2393    7.2372 N   0  0  0  0  0  0  0  0  0  0  0  0
    3.1956   27.5930    6.6374 N   0  0  0  0  0  0  0  0  0  0  0  0
    4.8757   21.4797   10.4833 N   0  0  0  0  0  0  0  0  0  0  0  0
    6.0086   19.6897   11.8802 C   0  0  0  0  0  0  0  0  0  0  0  0
    2.8913   19.9696   10.0372 C   0  0  0  0  0  0  0  0  0  0  0  0
    5.4084   26.9607    5.4740 C   0  0  0  0  0  0  0  0  0  0  0  0
    2.4024   25.0587    9.2495 C   0  0  0  0  0  0  0  0  0  0  0  0
    5.4781   22.0588    8.0531 C   0  0  0  0  0  0  0  0  0  0  0  0
    5.9148   21.1412   11.3998 C   0  0  0  0  0  0  0  0  0  0  0  0
    3.6218   20.9285   10.9179 C   0  0  0  0  0  0  0  0  0  0  0  0
    5.2124   21.0320    9.1279 C   0  0  0  0  0  0  0  0  0  0  0  0
   -2.6127   31.2382    9.4941 C   0  0  0  0  0  0  0  0  0  0  0  0
   -1.6721   31.7925    8.6068 C   0  0  0  0  0  0  0  0  0  0  0  0
   -1.4140   29.1273    9.4156 C   0  0  0  0  0  0  0  0  0  0  0  0
    1.0670   27.6442    8.1767 C   0  0  0  0  0  0  0  0  0  0  0  0
    5.1168   24.5010    7.6443 C   0  0  0  0  0  0  0  0  0  0  0  0
    1.2718   30.1101    7.0998 C   0  0  0  0  0  0  0  0  0  0  0  0
   -2.4839   29.9055    9.8955 C   0  0  0  0  0  0  0  0  0  0  0  0
    4.2764   26.7601    6.4896 C   0  0  0  0  0  0  0  0  0  0  0  0
   -0.5875   30.9879    8.1190 C   0  0  0  0  0  0  0  0  0  0  0  0
    2.3846   27.0925    7.6515 C   0  0  0  0  0  0  0  0  0  0  0  0
    2.9664   25.9155    8.1460 C   0  0  0  0  0  0  0  0  0  0  0  0
    0.6847   29.1131    7.8998 C   0  0  0  0  0  0  0  0  0  0  0  0
   -0.4864   29.6884    8.5261 C   0  0  0  0  0  0  0  0  0  0  0  0
    4.1556   25.6971    7.4393 C   0  0  0  0  0  0  0  0  0  0  0  0
    2.9012   29.1297    6.2818 H   0  0  0  0  0  0  0  0  0  0  0  0
    3.5950   23.0106    7.9124 H   0  0  0  0  0  0  0  0  0  0  0  0
    0.6929   32.1127    6.7863 H   0  0  0  0  0  0  0  0  0  0  0  0
    3.0201   28.4213    6.1052 H   0  0  0  0  0  0  0  0  0  0  0  0
    6.7768   19.5973   12.5137 H   0  0  0  0  0  0  0  0  0  0  0  0
    5.1604   19.4372   12.3458 H   0  0  0  0  0  0  0  0  0  0  0  0
    6.1498   19.0871   11.0948 H   0  0  0  0  0  0  0  0  0  0  0  0
    2.0442   19.6842   10.4855 H   0  0  0  0  0  0  0  0  0  0  0  0
    2.6750   20.4139    9.1678 H   0  0  0  0  0  0  0  0  0  0  0  0
    3.4654   19.1684    9.8683 H   0  0  0  0  0  0  0  0  0  0  0  0
    6.0739   26.2199    5.5659 H   0  0  0  0  0  0  0  0  0  0  0  0
    5.0304   26.9562    4.5482 H   0  0  0  0  0  0  0  0  0  0  0  0
    5.8590   27.8368    5.6458 H   0  0  0  0  0  0  0  0  0  0  0  0
    3.0089   24.2800    9.4099 H   0  0  0  0  0  0  0  0  0  0  0  0
    2.3270   25.6005   10.0866 H   0  0  0  0  0  0  0  0  0  0  0  0
    1.4970   24.7271    8.9843 H   0  0  0  0  0  0  0  0  0  0  0  0
    6.3795   22.4480    8.2427 H   0  0  0  0  0  0  0  0  0  0  0  0
    5.5041   21.5658    7.1835 H   0  0  0  0  0  0  0  0  0  0  0  0
    5.7946   21.7149   12.2100 H   0  0  0  0  0  0  0  0  0  0  0  0
    6.7840   21.3648   10.9589 H   0  0  0  0  0  0  0  0  0  0  0  0
    3.0065   21.6998   11.0803 H   0  0  0  0  0  0  0  0  0  0  0  0
    3.7969   20.4543   11.7808 H   0  0  0  0  0  0  0  0  0  0  0  0
    4.4507   20.4676    8.8098 H   0  0  0  0  0  0  0  0  0  0  0  0
    6.0356   20.4692    9.2031 H   0  0  0  0  0  0  0  0  0  0  0  0
   -3.3697   31.7950    9.8361 H   0  0  0  0  0  0  0  0  0  0  0  0
   -1.7588   32.7454    8.3162 H   0  0  0  0  0  0  0  0  0  0  0  0
   -1.3155   28.1761    9.7083 H   0  0  0  0  0  0  0  0  0  0  0  0
    1.0815   27.5313    9.1702 H   0  0  0  0  0  0  0  0  0  0  0  0
    0.3405   27.0778    7.7875 H   0  0  0  0  0  0  0  0  0  0  0  0
  1 22  1  0  0  0  0
  2 20  2  0  0  0  0
  3 21  1  0  0  0  0
  4 12  1  0  0  0  0
  4 20  1  0  0  0  0
  5 21  1  0  0  0  0
  5 24  1  0  0  0  0
  6 23  1  0  0  0  0
  6 25  1  0  0  0  0
  7 13  1  0  0  0  0
  7 14  1  0  0  0  0
  7 15  1  0  0  0  0
  8 13  1  0  0  0  0
  9 14  1  0  0  0  0
 10 23  1  0  0  0  0
 11 26  1  0  0  0  0
 12 15  1  0  0  0  0
 16 17  1  0  0  0  0
 16 22  2  0  0  0  0
 17 24  2  0  0  0  0
 18 22  1  0  0  0  0
 18 28  2  0  0  0  0
 19 25  1  0  0  0  0
 19 27  1  0  0  0  0
 20 29  1  0  0  0  0
 21 27  2  0  0  0  0
 23 29  2  0  0  0  0
 24 28  1  0  0  0  0
 25 26  2  0  0  0  0
 26 29  1  0  0  0  0
 27 28  1  0  0  0  0
  3 30  1  0  0  0  0
  4 31  1  0  0  0  0
  5 32  1  0  0  0  0
  6 33  1  0  0  0  0
  8 34  1  0  0  0  0
  8 35  1  0  0  0  0
  8 36  1  0  0  0  0
  9 37  1  0  0  0  0
  9 38  1  0  0  0  0
  9 39  1  0  0  0  0
 10 40  1  0  0  0  0
 10 41  1  0  0  0  0
 10 42  1  0  0  0  0
 11 43  1  0  0  0  0
 11 44  1  0  0  0  0
 11 45  1  0  0  0  0
 12 46  1  0  0  0  0
 12 47  1  0  0  0  0
 13 48  1  0  0  0  0
 13 49  1  0  0  0  0
 14 50  1  0  0  0  0
 14 51  1  0  0  0  0
 15 52  1  0  0  0  0
 15 53  1  0  0  0  0
 16 54  1  0  0  0  0
 17 55  1  0  0  0  0
 18 56  1  0  0  0  0
 19 57  1  0  0  0  0
 19 58  1  0  0  0  0
M  END
$$$$
