TIY_A_311
          05071912473D 1   1.00000     0.00000     0
            
 22 23  0  0  0  0            999 V2000
   -3.8869   30.1149   11.0325 O   0  0  0  0  0  0  0  0  0  0  0  0
    2.4737   28.1001    6.6369 O   0  0  0  0  0  0  0  0  0  0  0  0
    1.6633   30.8165    6.5170 O   0  0  0  0  0  0  0  0  0  0  0  0
   -2.2184   31.2272    9.4319 O   0  0  0  0  0  0  0  0  0  0  0  0
   -0.3338   31.6355    7.8464 O   0  0  0  0  0  0  0  0  0  0  0  0
   -2.1172   26.9835   10.5263 C   0  0  0  0  0  0  0  0  0  0  0  0
   -2.9502   28.0357   10.8743 C   0  0  0  0  0  0  0  0  0  0  0  0
   -1.0202   27.0036    9.6617 C   0  0  0  0  0  0  0  0  0  0  0  0
    0.6933   27.6616    8.1448 C   0  0  0  0  0  0  0  0  0  0  0  0
   -2.8921   29.3690   10.4620 C   0  0  0  0  0  0  0  0  0  0  0  0
    1.4095   28.5522    7.3353 C   0  0  0  0  0  0  0  0  0  0  0  0
   -0.4366   28.0655    8.9212 C   0  0  0  0  0  0  0  0  0  0  0  0
    1.0126   29.8979    7.2787 C   0  0  0  0  0  0  0  0  0  0  0  0
   -1.9736   29.9935    9.5772 C   0  0  0  0  0  0  0  0  0  0  0  0
   -0.0913   30.3176    8.0210 C   0  0  0  0  0  0  0  0  0  0  0  0
   -0.8615   29.4405    8.8672 C   0  0  0  0  0  0  0  0  0  0  0  0
   -3.9632   31.0899   10.8237 H   0  0  0  0  0  0  0  0  0  0  0  0
   -1.6431   31.7839    8.8326 H   0  0  0  0  0  0  0  0  0  0  0  0
   -2.3277   26.1007   10.9464 H   0  0  0  0  0  0  0  0  0  0  0  0
   -3.6923   27.8097   11.5052 H   0  0  0  0  0  0  0  0  0  0  0  0
   -0.5687   26.1190    9.5440 H   0  0  0  0  0  0  0  0  0  0  0  0
    0.9839   26.7054    8.1809 H   0  0  0  0  0  0  0  0  0  0  0  0
  1 10  1  0  0  0  0
  2 11  2  0  0  0  0
  3 13  2  0  0  0  0
  4 14  1  0  0  0  0
  5 15  2  0  0  0  0
  6  7  1  0  0  0  0
  6  8  2  0  0  0  0
  7 10  2  0  0  0  0
  8 12  1  0  0  0  0
  9 11  1  0  0  0  0
  9 12  2  0  0  0  0
 10 14  1  0  0  0  0
 11 13  1  0  0  0  0
 12 16  1  0  0  0  0
 13 15  1  0  0  0  0
 14 16  2  0  0  0  0
 15 16  1  0  0  0  0
  1 17  1  0  0  0  0
  4 18  1  0  0  0  0
  6 19  1  0  0  0  0
  7 20  1  0  0  0  0
  8 21  1  0  0  0  0
  9 22  1  0  0  0  0
M  END
$$$$
