D6I_A_1300
          05071912473D 1   1.00000     0.00000     0
            
 52 55  0  0  0  0            999 V2000
    4.9944   23.8246    7.3069 O   0  0  0  0  0  0  0  0  0  0  0  0
    1.9258   30.8340    6.7565 N   0  0  0  0  0  0  0  0  0  0  0  0
   -0.0692   31.1072    8.0624 N   0  0  0  0  0  0  0  0  0  0  0  0
   -3.0801   29.3151   10.2083 N   0  0  0  0  0  0  0  0  0  0  0  0
    2.8956   26.7882    7.5915 N   0  0  0  0  0  0  0  0  0  0  0  0
    2.9848   28.8462    6.4843 N   0  0  0  0  0  0  0  0  0  0  0  0
    4.4610   20.1066    5.7765 N   0  0  0  0  0  0  0  0  0  0  0  0
   -1.0899   29.3429    9.1731 N   0  0  0  0  0  0  0  0  0  0  0  0
    5.3361   18.9505    5.8862 C   0  0  0  0  0  0  0  0  0  0  0  0
    4.1212   20.3351    4.3808 C   0  0  0  0  0  0  0  0  0  0  0  0
    0.9180   31.5342    7.2731 C   0  0  0  0  0  0  0  0  0  0  0  0
   -2.3043   29.9653    9.3738 C   0  0  0  0  0  0  0  0  0  0  0  0
    4.2366   22.9068    8.1030 C   0  0  0  0  0  0  0  0  0  0  0  0
    3.3975   25.5601    7.7850 C   0  0  0  0  0  0  0  0  0  0  0  0
    5.0893   21.2885    6.3592 C   0  0  0  0  0  0  0  0  0  0  0  0
    4.7311   21.5157    7.8149 C   0  0  0  0  0  0  0  0  0  0  0  0
   -1.7289   26.1827   11.7316 C   0  0  0  0  0  0  0  0  0  0  0  0
   -0.4979   26.2012   11.1147 C   0  0  0  0  0  0  0  0  0  0  0  0
    4.6436   27.1938    6.0059 C   0  0  0  0  0  0  0  0  0  0  0  0
   -2.6592   27.1830   11.4995 C   0  0  0  0  0  0  0  0  0  0  0  0
    5.1439   25.9269    6.2138 C   0  0  0  0  0  0  0  0  0  0  0  0
   -0.1567   27.2155   10.2327 C   0  0  0  0  0  0  0  0  0  0  0  0
    0.9508   28.9365    7.8582 C   0  0  0  0  0  0  0  0  0  0  0  0
    3.5083   27.5876    6.7102 C   0  0  0  0  0  0  0  0  0  0  0  0
    1.9349   29.5334    7.0662 C   0  0  0  0  0  0  0  0  0  0  0  0
   -0.0090   29.8106    8.3705 C   0  0  0  0  0  0  0  0  0  0  0  0
    4.5030   25.0905    7.1013 C   0  0  0  0  0  0  0  0  0  0  0  0
   -2.3399   28.2113   10.6143 C   0  0  0  0  0  0  0  0  0  0  0  0
   -1.0911   28.2158   10.0004 C   0  0  0  0  0  0  0  0  0  0  0  0
    3.4538   29.3570    5.7637 H   0  0  0  0  0  0  0  0  0  0  0  0
    5.5671   18.7972    6.8470 H   0  0  0  0  0  0  0  0  0  0  0  0
    4.8700   18.1439    5.5226 H   0  0  0  0  0  0  0  0  0  0  0  0
    6.1731   19.1153    5.3643 H   0  0  0  0  0  0  0  0  0  0  0  0
    3.5195   21.1307    4.3101 H   0  0  0  0  0  0  0  0  0  0  0  0
    4.9567   20.5015    3.8572 H   0  0  0  0  0  0  0  0  0  0  0  0
    3.6536   19.5301    4.0155 H   0  0  0  0  0  0  0  0  0  0  0  0
    0.8985   32.5062    7.0390 H   0  0  0  0  0  0  0  0  0  0  0  0
   -2.5658   30.8224    8.9299 H   0  0  0  0  0  0  0  0  0  0  0  0
    3.2668   22.9766    7.8693 H   0  0  0  0  0  0  0  0  0  0  0  0
    4.3618   23.1166    9.0727 H   0  0  0  0  0  0  0  0  0  0  0  0
    2.9542   24.9598    8.4506 H   0  0  0  0  0  0  0  0  0  0  0  0
    4.8014   22.0898    5.8347 H   0  0  0  0  0  0  0  0  0  0  0  0
    6.0815   21.1844    6.2909 H   0  0  0  0  0  0  0  0  0  0  0  0
    4.0144   20.8664    8.0693 H   0  0  0  0  0  0  0  0  0  0  0  0
    5.5453   21.3481    8.3708 H   0  0  0  0  0  0  0  0  0  0  0  0
   -1.9549   25.4357   12.3568 H   0  0  0  0  0  0  0  0  0  0  0  0
    0.1597   25.4724   11.3055 H   0  0  0  0  0  0  0  0  0  0  0  0
    5.0867   27.8179    5.3623 H   0  0  0  0  0  0  0  0  0  0  0  0
   -3.5466   27.1674   11.9603 H   0  0  0  0  0  0  0  0  0  0  0  0
    5.9613   25.6187    5.7271 H   0  0  0  0  0  0  0  0  0  0  0  0
    0.7340   27.2261    9.7784 H   0  0  0  0  0  0  0  0  0  0  0  0
    0.9352   27.9541    8.0444 H   0  0  0  0  0  0  0  0  0  0  0  0
  1 13  1  0  0  0  0
  1 27  1  0  0  0  0
  2 11  2  0  0  0  0
  2 25  1  0  0  0  0
  3 11  1  0  0  0  0
  3 26  2  0  0  0  0
  4 12  2  0  0  0  0
  4 28  1  0  0  0  0
  5 14  1  0  0  0  0
  5 24  2  0  0  0  0
  6 24  1  0  0  0  0
  6 25  1  0  0  0  0
  7  9  1  0  0  0  0
  7 10  1  0  0  0  0
  7 15  1  0  0  0  0
  8 12  1  0  0  0  0
  8 26  1  0  0  0  0
  8 29  1  0  0  0  0
 13 16  1  0  0  0  0
 14 27  2  0  0  0  0
 15 16  1  0  0  0  0
 17 18  2  0  0  0  0
 17 20  1  0  0  0  0
 18 22  1  0  0  0  0
 19 21  2  0  0  0  0
 19 24  1  0  0  0  0
 20 28  2  0  0  0  0
 21 27  1  0  0  0  0
 22 29  2  0  0  0  0
 23 25  2  0  0  0  0
 23 26  1  0  0  0  0
 28 29  1  0  0  0  0
  6 30  1  0  0  0  0
  9 31  1  0  0  0  0
  9 32  1  0  0  0  0
  9 33  1  0  0  0  0
 10 34  1  0  0  0  0
 10 35  1  0  0  0  0
 10 36  1  0  0  0  0
 11 37  1  0  0  0  0
 12 38  1  0  0  0  0
 13 39  1  0  0  0  0
 13 40  1  0  0  0  0
 14 41  1  0  0  0  0
 15 42  1  0  0  0  0
 15 43  1  0  0  0  0
 16 44  1  0  0  0  0
 16 45  1  0  0  0  0
 17 46  1  0  0  0  0
 18 47  1  0  0  0  0
 19 48  1  0  0  0  0
 20 49  1  0  0  0  0
 21 50  1  0  0  0  0
 22 51  1  0  0  0  0
 23 52  1  0  0  0  0
M  END
$$$$
