WG8_A_1296
          05071912473D 1   1.00000     0.00000     0
            
 31 33  0  0  0  0            999 V2000
   -1.2493   30.7602    8.3963 S   0  0  0  0  0  0  0  0  0  0  0  0
   -4.5615   30.4064   11.2182 O   0  0  0  0  0  0  0  0  0  0  0  0
   -3.9580   28.2840   11.2975 O   0  0  0  0  0  0  0  0  0  0  0  0
    2.8539   29.8671    6.2055 O   0  0  0  0  0  0  0  0  0  0  0  0
   -1.8702   28.6246    9.6455 N   0  0  0  0  0  0  0  0  0  0  0  0
    1.1751   28.8648    7.8241 N   0  0  0  0  0  0  0  0  0  0  0  0
    4.4502   26.6003    6.7574 C   0  0  0  0  0  0  0  0  0  0  0  0
    4.2712   27.8766    6.2468 C   0  0  0  0  0  0  0  0  0  0  0  0
    0.3727   27.1252    9.2098 C   0  0  0  0  0  0  0  0  0  0  0  0
    3.5201   26.0783    7.6441 C   0  0  0  0  0  0  0  0  0  0  0  0
    1.4651   26.3330    8.8736 C   0  0  0  0  0  0  0  0  0  0  0  0
   -2.4114   31.0113    9.6867 C   0  0  0  0  0  0  0  0  0  0  0  0
   -3.8741   29.4386   10.8118 C   0  0  0  0  0  0  0  0  0  0  0  0
   -0.8294   29.1454    8.9775 C   0  0  0  0  0  0  0  0  0  0  0  0
    3.1554   28.6202    6.6300 C   0  0  0  0  0  0  0  0  0  0  0  0
    0.2454   28.4070    8.6755 C   0  0  0  0  0  0  0  0  0  0  0  0
    2.4102   26.8316    8.0012 C   0  0  0  0  0  0  0  0  0  0  0  0
    2.2296   28.1082    7.4984 C   0  0  0  0  0  0  0  0  0  0  0  0
   -3.0101   29.6251    9.7046 C   0  0  2  0  0  0  0  0  0  0  0  0
    1.9994   30.1664    6.6290 H   0  0  0  0  0  0  0  0  0  0  0  0
    5.3270   26.0168    6.4755 H   0  0  0  0  0  0  0  0  0  0  0  0
    5.0037   28.3011    5.5597 H   0  0  0  0  0  0  0  0  0  0  0  0
   -0.3838   26.7457    9.8958 H   0  0  0  0  0  0  0  0  0  0  0  0
    3.6534   25.0752    8.0492 H   0  0  0  0  0  0  0  0  0  0  0  0
    1.5750   25.3348    9.2968 H   0  0  0  0  0  0  0  0  0  0  0  0
   -3.1361   31.8093    9.5068 H   0  0  0  0  0  0  0  0  0  0  0  0
   -1.8771   31.1747   10.6250 H   0  0  0  0  0  0  0  0  0  0  0  0
   -3.5862   29.4931    8.7888 H   0  0  0  0  0  0  0  0  0  0  0  0
   -4.4559   31.3069   10.7963 H   0  0  0  0  0  0  0  0  0  0  0  0
   -1.8918   27.7088   10.0466 H   0  0  0  0  0  0  0  0  0  0  0  0
    1.0795   29.7787    7.4296 H   0  0  0  0  0  0  0  0  0  0  0  0
  1 12  1  0  0  0  0
  1 14  1  0  0  0  0
  2 13  1  0  0  0  0
  3 13  2  0  0  0  0
  4 15  1  0  0  0  0
  4 20  1  0  0  0  0
  5 14  1  0  0  0  0
  5 19  1  0  0  0  0
  6 16  1  0  0  0  0
  6 18  1  0  0  0  0
  7  8  2  0  0  0  0
  7 10  1  0  0  0  0
  7 21  1  0  0  0  0
  8 15  1  0  0  0  0
  8 22  1  0  0  0  0
  9 11  2  0  0  0  0
  9 16  1  0  0  0  0
  9 23  1  0  0  0  0
 10 17  2  0  0  0  0
 10 24  1  0  0  0  0
 11 17  1  0  0  0  0
 11 25  1  0  0  0  0
 12 19  1  0  0  0  0
 12 26  1  0  0  0  0
 12 27  1  0  0  0  0
 13 19  1  0  0  0  0
 14 16  2  0  0  0  0
 15 18  2  0  0  0  0
 17 18  1  0  0  0  0
 19 28  1  0  0  0  0
  2 29  1  0  0  0  0
  5 30  1  0  0  0  0
  6 31  1  0  0  0  0
M  END
$$$$
