1CK_A_301
          05071912473D 1   1.00000     0.00000     0
            
 26 27  0  0  0  0            999 V2000
    7.8956   24.0814    5.0746 Br  0  0  0  0  0  0  0  0  0  0  0  0
    2.3482   26.8471    7.9131 O   0  0  0  0  0  0  0  0  0  0  0  0
    1.7782   30.6399    6.4454 N   0  0  0  0  0  0  0  0  0  0  0  0
    0.6992   31.2227    6.9584 N   0  0  0  0  0  0  0  0  0  0  0  0
    2.7908   28.5468    6.4891 N   0  0  0  0  0  0  0  0  0  0  0  0
   -1.3472   30.7291    8.3446 C   0  0  0  0  0  0  0  0  0  0  0  0
    6.0384   25.0102    6.9878 C   0  0  0  0  0  0  0  0  0  0  0  0
    5.6789   25.9088    4.7527 C   0  0  0  0  0  0  0  0  0  0  0  0
    4.9343   25.7455    7.4405 C   0  0  0  0  0  0  0  0  0  0  0  0
    4.5785   26.6333    5.2306 C   0  0  0  0  0  0  0  0  0  0  0  0
    0.6507   29.1832    7.6184 C   0  0  0  0  0  0  0  0  0  0  0  0
    3.0586   27.3317    7.0353 C   0  0  0  0  0  0  0  0  0  0  0  0
    6.4069   25.0828    5.6369 C   0  0  0  0  0  0  0  0  0  0  0  0
    1.7634   29.3771    6.8554 C   0  0  0  0  0  0  0  0  0  0  0  0
   -0.0239   30.3669    7.6521 C   0  0  0  0  0  0  0  0  0  0  0  0
    4.1889   26.5905    6.5720 C   0  0  0  0  0  0  0  0  0  0  0  0
    2.4681   31.0697    5.8629 H   0  0  0  0  0  0  0  0  0  0  0  0
    3.3949   28.8623    5.7572 H   0  0  0  0  0  0  0  0  0  0  0  0
   -1.7130   29.9218    8.8077 H   0  0  0  0  0  0  0  0  0  0  0  0
   -1.1853   31.4532    9.0151 H   0  0  0  0  0  0  0  0  0  0  0  0
   -2.0044   31.0481    7.6617 H   0  0  0  0  0  0  0  0  0  0  0  0
    6.5587   24.4390    7.6226 H   0  0  0  0  0  0  0  0  0  0  0  0
    5.9469   25.9764    3.7917 H   0  0  0  0  0  0  0  0  0  0  0  0
    4.6631   25.6742    8.4003 H   0  0  0  0  0  0  0  0  0  0  0  0
    4.0559   27.1982    4.5920 H   0  0  0  0  0  0  0  0  0  0  0  0
    0.3802   28.3323    8.0687 H   0  0  0  0  0  0  0  0  0  0  0  0
  1 13  1  0  0  0  0
  2 12  2  0  0  0  0
  3  4  1  0  0  0  0
  3 14  1  0  0  0  0
  4 15  2  0  0  0  0
  5 12  1  0  0  0  0
  5 14  1  0  0  0  0
  6 15  1  0  0  0  0
  7  9  1  0  0  0  0
  7 13  2  0  0  0  0
  8 10  2  0  0  0  0
  8 13  1  0  0  0  0
  9 16  2  0  0  0  0
 10 16  1  0  0  0  0
 11 14  2  0  0  0  0
 11 15  1  0  0  0  0
 12 16  1  0  0  0  0
  3 17  1  0  0  0  0
  5 18  1  0  0  0  0
  6 19  1  0  0  0  0
  6 20  1  0  0  0  0
  6 21  1  0  0  0  0
  7 22  1  0  0  0  0
  8 23  1  0  0  0  0
  9 24  1  0  0  0  0
 10 25  1  0  0  0  0
 11 26  1  0  0  0  0
M  END
$$$$
