STU_A_301
          05071912473D 1   1.00000     0.00000     0
            
 59 66  0  0  0  0            999 V2000
    2.3127   30.7905    5.9939 O   0  0  0  0  0  0  0  0  0  0  0  0
    0.7050   26.2375   11.2441 O   0  0  0  0  0  0  0  0  0  0  0  0
   -0.3713   24.3496    8.7795 O   0  0  0  0  0  0  0  0  0  0  0  0
    1.6760   23.7432   12.2995 N   0  0  0  0  0  0  0  0  0  0  0  0
    0.2773   31.5659    7.0015 N   0  0  0  0  0  0  0  0  0  0  0  0
    1.3784   25.8096    8.1330 N   0  0  0  0  0  0  0  0  0  0  0  0
   -1.3670   26.4736    9.5842 N   0  0  0  0  0  0  0  0  0  0  0  0
    0.3267   27.2546   12.1332 C   0  0  0  0  0  0  0  0  0  0  0  0
    2.2541   22.4119   12.3953 C   0  0  0  0  0  0  0  0  0  0  0  0
   -2.1475   24.1141   10.1529 C   0  0  0  0  0  0  0  0  0  0  0  0
   -0.7189   31.0614    7.7612 C   0  0  0  0  0  0  0  0  0  0  0  0
    4.7150   25.5252    6.1654 C   0  0  0  0  0  0  0  0  0  0  0  0
   -4.6292   27.9600   11.1229 C   0  0  0  0  0  0  0  0  0  0  0  0
    4.7393   26.8879    5.7270 C   0  0  0  0  0  0  0  0  0  0  0  0
   -4.4614   29.2595   10.6230 C   0  0  0  0  0  0  0  0  0  0  0  0
    3.6437   25.0550    6.9732 C   0  0  0  0  0  0  0  0  0  0  0  0
   -3.6843   26.9755   10.8631 C   0  0  0  0  0  0  0  0  0  0  0  0
   -3.3244   29.5637    9.8352 C   0  0  0  0  0  0  0  0  0  0  0  0
    3.6816   27.7837    6.0900 C   0  0  0  0  0  0  0  0  0  0  0  0
    1.8784   24.1780    9.9642 C   0  0  0  0  0  0  0  0  0  0  0  0
    1.1837   30.6153    6.7246 C   0  0  0  0  0  0  0  0  0  0  0  0
    1.0849   24.5022    8.6831 C   0  0  1  0  0  0  0  0  0  0  0  0
   -0.0343   25.0395   11.1421 C   0  0  2  0  0  0  0  0  0  0  0  0
    0.9216   23.8949   11.0540 C   0  0  2  0  0  0  0  0  0  0  0  0
    2.5939   25.9506    7.3385 C   0  0  0  0  0  0  0  0  0  0  0  0
   -2.5296   27.2606   10.0603 C   0  0  0  0  0  0  0  0  0  0  0  0
    0.6336   26.9941    8.2060 C   0  0  0  0  0  0  0  0  0  0  0  0
   -0.5632   27.2699    8.8442 C   0  0  0  0  0  0  0  0  0  0  0  0
   -0.4233   29.6683    8.0163 C   0  0  0  0  0  0  0  0  0  0  0  0
   -2.3867   28.5692    9.5675 C   0  0  0  0  0  0  0  0  0  0  0  0
    2.6148   27.3231    6.8906 C   0  0  0  0  0  0  0  0  0  0  0  0
    0.7673   29.3814    7.3694 C   0  0  0  0  0  0  0  0  0  0  0  0
   -1.1179   28.6094    8.7787 C   0  0  0  0  0  0  0  0  0  0  0  0
    1.3474   28.0085    7.4506 C   0  0  0  0  0  0  0  0  0  0  0  0
   -0.9617   25.0187    9.8480 C   0  0  1  0  0  0  0  0  0  0  0  0
    2.4102   24.4218   12.3226 H   0  0  0  0  0  0  0  0  0  0  0  0
    0.9697   28.0171   12.0606 H   0  0  0  0  0  0  0  0  0  0  0  0
   -0.5937   27.5718   11.9047 H   0  0  0  0  0  0  0  0  0  0  0  0
    0.3345   26.9000   13.0682 H   0  0  0  0  0  0  0  0  0  0  0  0
    2.7638   22.3307   13.2519 H   0  0  0  0  0  0  0  0  0  0  0  0
    1.5238   21.7291   12.3761 H   0  0  0  0  0  0  0  0  0  0  0  0
    2.8723   22.2606   11.6240 H   0  0  0  0  0  0  0  0  0  0  0  0
   -2.6664   24.4918   10.9197 H   0  0  0  0  0  0  0  0  0  0  0  0
   -2.7377   24.0555    9.3477 H   0  0  0  0  0  0  0  0  0  0  0  0
   -1.8174   23.2008   10.3914 H   0  0  0  0  0  0  0  0  0  0  0  0
   -1.5197   31.5625    8.0895 H   0  0  0  0  0  0  0  0  0  0  0  0
    5.4527   24.9031    5.9030 H   0  0  0  0  0  0  0  0  0  0  0  0
   -5.4361   27.7402   11.6712 H   0  0  0  0  0  0  0  0  0  0  0  0
    5.4982   27.2162    5.1646 H   0  0  0  0  0  0  0  0  0  0  0  0
   -5.1401   29.9666   10.8215 H   0  0  0  0  0  0  0  0  0  0  0  0
    3.6258   24.1044    7.2831 H   0  0  0  0  0  0  0  0  0  0  0  0
   -3.8103   26.0577   11.2397 H   0  0  0  0  0  0  0  0  0  0  0  0
   -3.1956   30.4870    9.4733 H   0  0  0  0  0  0  0  0  0  0  0  0
    3.6993   28.7332    5.7767 H   0  0  0  0  0  0  0  0  0  0  0  0
    2.4502   24.9598   10.2129 H   0  0  0  0  0  0  0  0  0  0  0  0
    2.4574   23.3777    9.8082 H   0  0  0  0  0  0  0  0  0  0  0  0
    1.3867   23.8402    7.9970 H   0  0  0  0  0  0  0  0  0  0  0  0
   -0.6031   24.9324   11.9576 H   0  0  0  0  0  0  0  0  0  0  0  0
    0.4224   23.0514   10.8556 H   0  0  0  0  0  0  0  0  0  0  0  0
  1 21  2  0  0  0  0
  2  8  1  0  0  0  0
  2 23  1  0  0  0  0
  3 22  1  0  0  0  0
  3 35  1  0  0  0  0
  4  9  1  0  0  0  0
  4 24  1  0  0  0  0
  5 11  2  0  0  0  0
  5 21  1  0  0  0  0
  6 22  1  0  0  0  0
  6 25  1  0  0  0  0
  6 27  1  0  0  0  0
  7 26  1  0  0  0  0
  7 28  1  0  0  0  0
  7 35  1  0  0  0  0
 10 35  1  0  0  0  0
 11 29  1  0  0  0  0
 12 14  2  0  0  0  0
 12 16  1  0  0  0  0
 13 15  2  0  0  0  0
 13 17  1  0  0  0  0
 14 19  1  0  0  0  0
 15 18  1  0  0  0  0
 16 25  2  0  0  0  0
 17 26  2  0  0  0  0
 18 30  2  0  0  0  0
 19 31  2  0  0  0  0
 20 22  1  0  0  0  0
 20 24  1  0  0  0  0
 21 32  1  0  0  0  0
 23 24  1  0  0  0  0
 23 35  1  0  0  0  0
 25 31  1  0  0  0  0
 26 30  1  0  0  0  0
 27 28  1  0  0  0  0
 27 34  2  0  0  0  0
 28 33  2  0  0  0  0
 29 32  2  0  0  0  0
 29 33  1  0  0  0  0
 30 33  1  0  0  0  0
 31 34  1  0  0  0  0
 32 34  1  0  0  0  0
  4 36  1  0  0  0  0
  8 37  1  0  0  0  0
  8 38  1  0  0  0  0
  8 39  1  0  0  0  0
  9 40  1  0  0  0  0
  9 41  1  0  0  0  0
  9 42  1  0  0  0  0
 10 43  1  0  0  0  0
 10 44  1  0  0  0  0
 10 45  1  0  0  0  0
 11 46  1  0  0  0  0
 12 47  1  0  0  0  0
 13 48  1  0  0  0  0
 14 49  1  0  0  0  0
 15 50  1  0  0  0  0
 16 51  1  0  0  0  0
 17 52  1  0  0  0  0
 18 53  1  0  0  0  0
 19 54  1  0  0  0  0
 20 55  1  0  0  0  0
 20 56  1  0  0  0  0
 22 57  1  0  0  0  0
 23 58  1  0  0  0  0
 24 59  1  0  0  0  0
M  END
$$$$
