STU_A_301
          05071912473D 1   1.00000     0.00000     0
            
 59 66  0  0  0  0            999 V2000
    2.2516   30.9115    5.7127 O   0  0  0  0  0  0  0  0  0  0  0  0
    1.0828   26.5051   11.3594 O   0  0  0  0  0  0  0  0  0  0  0  0
   -0.1328   24.6806    8.9388 O   0  0  0  0  0  0  0  0  0  0  0  0
    2.0475   23.7188   12.2194 N   0  0  0  0  0  0  0  0  0  0  0  0
    0.3257   31.7799    6.8839 N   0  0  0  0  0  0  0  0  0  0  0  0
    1.5497   26.0810    8.0961 N   0  0  0  0  0  0  0  0  0  0  0  0
   -1.0535   26.8057    9.8197 N   0  0  0  0  0  0  0  0  0  0  0  0
    0.7313   27.5528   12.2179 C   0  0  0  0  0  0  0  0  0  0  0  0
    2.2243   22.2736   12.2374 C   0  0  0  0  0  0  0  0  0  0  0  0
   -1.7970   24.4525   10.3956 C   0  0  0  0  0  0  0  0  0  0  0  0
   -0.5864   31.3102    7.7749 C   0  0  0  0  0  0  0  0  0  0  0  0
    4.6824   25.7058    5.7966 C   0  0  0  0  0  0  0  0  0  0  0  0
   -4.1426   28.3742   11.6461 C   0  0  0  0  0  0  0  0  0  0  0  0
    4.6563   27.0493    5.3088 C   0  0  0  0  0  0  0  0  0  0  0  0
   -4.0334   29.6541   11.0749 C   0  0  0  0  0  0  0  0  0  0  0  0
    3.6901   25.2772    6.7266 C   0  0  0  0  0  0  0  0  0  0  0  0
   -3.2286   27.3778   11.3174 C   0  0  0  0  0  0  0  0  0  0  0  0
   -2.9790   29.9206   10.1585 C   0  0  0  0  0  0  0  0  0  0  0  0
    3.6383   27.9516    5.7572 C   0  0  0  0  0  0  0  0  0  0  0  0
    2.1986   24.5353    9.9571 C   0  0  0  0  0  0  0  0  0  0  0  0
    1.2024   30.8099    6.5642 C   0  0  0  0  0  0  0  0  0  0  0  0
    1.3146   24.7996    8.7201 C   0  0  1  0  0  0  0  0  0  0  0  0
    0.3616   25.2983   11.2986 C   0  0  2  0  0  0  0  0  0  0  0  0
    1.2835   24.1430   11.0437 C   0  0  2  0  0  0  0  0  0  0  0  0
    2.6750   26.1824    7.1718 C   0  0  0  0  0  0  0  0  0  0  0  0
   -2.1570   27.6194   10.3929 C   0  0  0  0  0  0  0  0  0  0  0  0
    0.8031   27.2669    8.2129 C   0  0  0  0  0  0  0  0  0  0  0  0
   -0.3245   27.5707    8.9694 C   0  0  0  0  0  0  0  0  0  0  0  0
   -0.2735   29.9271    8.0509 C   0  0  0  0  0  0  0  0  0  0  0  0
   -2.0668   28.9093    9.8300 C   0  0  0  0  0  0  0  0  0  0  0  0
    2.6481   27.5361    6.6839 C   0  0  0  0  0  0  0  0  0  0  0  0
    0.8502   29.6066    7.2947 C   0  0  0  0  0  0  0  0  0  0  0  0
   -0.8928   28.9051    8.9135 C   0  0  0  0  0  0  0  0  0  0  0  0
    1.4413   28.2421    7.3504 C   0  0  0  0  0  0  0  0  0  0  0  0
   -0.6262   25.3503   10.0660 C   0  0  1  0  0  0  0  0  0  0  0  0
    2.9460   24.1574   12.2004 H   0  0  0  0  0  0  0  0  0  0  0  0
    1.3736   28.3102   12.0998 H   0  0  0  0  0  0  0  0  0  0  0  0
   -0.1943   27.8640   12.0024 H   0  0  0  0  0  0  0  0  0  0  0  0
    0.7635   27.2330   13.1648 H   0  0  0  0  0  0  0  0  0  0  0  0
    2.7478   22.0120   13.0483 H   0  0  0  0  0  0  0  0  0  0  0  0
    1.3291   21.8286   12.2606 H   0  0  0  0  0  0  0  0  0  0  0  0
    2.7175   21.9879   11.4158 H   0  0  0  0  0  0  0  0  0  0  0  0
   -2.2702   24.8047   11.2031 H   0  0  0  0  0  0  0  0  0  0  0  0
   -2.4294   24.4316    9.6213 H   0  0  0  0  0  0  0  0  0  0  0  0
   -1.4657   23.5272   10.5806 H   0  0  0  0  0  0  0  0  0  0  0  0
   -1.3426   31.8313    8.1707 H   0  0  0  0  0  0  0  0  0  0  0  0
    5.3911   25.0714    5.4879 H   0  0  0  0  0  0  0  0  0  0  0  0
   -4.8808   28.1789   12.2918 H   0  0  0  0  0  0  0  0  0  0  0  0
    5.3475   27.3586    4.6557 H   0  0  0  0  0  0  0  0  0  0  0  0
   -4.6906   30.3701   11.3106 H   0  0  0  0  0  0  0  0  0  0  0  0
    3.7037   24.3381    7.0700 H   0  0  0  0  0  0  0  0  0  0  0  0
   -3.3202   26.4735   11.7344 H   0  0  0  0  0  0  0  0  0  0  0  0
   -2.8889   30.8285    9.7493 H   0  0  0  0  0  0  0  0  0  0  0  0
    3.6254   28.8898    5.4112 H   0  0  0  0  0  0  0  0  0  0  0  0
    2.6993   25.3637   10.2082 H   0  0  0  0  0  0  0  0  0  0  0  0
    2.8474   23.7982    9.7678 H   0  0  0  0  0  0  0  0  0  0  0  0
    1.5578   24.1049    8.0432 H   0  0  0  0  0  0  0  0  0  0  0  0
   -0.1484   25.1553   12.1468 H   0  0  0  0  0  0  0  0  0  0  0  0
    0.7359   23.3679   10.7286 H   0  0  0  0  0  0  0  0  0  0  0  0
  1 21  2  0  0  0  0
  2  8  1  0  0  0  0
  2 23  1  0  0  0  0
  3 22  1  0  0  0  0
  3 35  1  0  0  0  0
  4  9  1  0  0  0  0
  4 24  1  0  0  0  0
  5 11  2  0  0  0  0
  5 21  1  0  0  0  0
  6 22  1  0  0  0  0
  6 25  1  0  0  0  0
  6 27  1  0  0  0  0
  7 26  1  0  0  0  0
  7 28  1  0  0  0  0
  7 35  1  0  0  0  0
 10 35  1  0  0  0  0
 11 29  1  0  0  0  0
 12 14  2  0  0  0  0
 12 16  1  0  0  0  0
 13 15  2  0  0  0  0
 13 17  1  0  0  0  0
 14 19  1  0  0  0  0
 15 18  1  0  0  0  0
 16 25  2  0  0  0  0
 17 26  2  0  0  0  0
 18 30  2  0  0  0  0
 19 31  2  0  0  0  0
 20 22  1  0  0  0  0
 20 24  1  0  0  0  0
 21 32  1  0  0  0  0
 23 24  1  0  0  0  0
 23 35  1  0  0  0  0
 25 31  1  0  0  0  0
 26 30  1  0  0  0  0
 27 28  1  0  0  0  0
 27 34  2  0  0  0  0
 28 33  2  0  0  0  0
 29 32  2  0  0  0  0
 29 33  1  0  0  0  0
 30 33  1  0  0  0  0
 31 34  1  0  0  0  0
 32 34  1  0  0  0  0
  4 36  1  0  0  0  0
  8 37  1  0  0  0  0
  8 38  1  0  0  0  0
  8 39  1  0  0  0  0
  9 40  1  0  0  0  0
  9 41  1  0  0  0  0
  9 42  1  0  0  0  0
 10 43  1  0  0  0  0
 10 44  1  0  0  0  0
 10 45  1  0  0  0  0
 11 46  1  0  0  0  0
 12 47  1  0  0  0  0
 13 48  1  0  0  0  0
 14 49  1  0  0  0  0
 15 50  1  0  0  0  0
 16 51  1  0  0  0  0
 17 52  1  0  0  0  0
 18 53  1  0  0  0  0
 19 54  1  0  0  0  0
 20 55  1  0  0  0  0
 20 56  1  0  0  0  0
 22 57  1  0  0  0  0
 23 58  1  0  0  0  0
 24 59  1  0  0  0  0
M  END
$$$$
