09K_A_301
          05071912473D 1   1.00000     0.00000     0
            
 37 39  0  0  0  0            999 V2000
    4.4358   22.1934    0.9116 F   0  0  0  0  0  0  0  0  0  0  0  0
    4.9149   24.2811    0.7589 F   0  0  0  0  0  0  0  0  0  0  0  0
    3.1302   23.6989    1.7604 F   0  0  0  0  0  0  0  0  0  0  0  0
    2.5620   26.7357    8.0706 O   0  0  0  0  0  0  0  0  0  0  0  0
    5.0669   23.2576    2.7574 O   0  0  0  0  0  0  0  0  0  0  0  0
    1.8886   30.6056    6.4948 N   0  0  0  0  0  0  0  0  0  0  0  0
    0.7242   31.1044    6.8911 N   0  0  0  0  0  0  0  0  0  0  0  0
    3.1101   28.5786    6.8241 N   0  0  0  0  0  0  0  0  0  0  0  0
    4.5855   23.6366    5.0813 C   0  0  0  0  0  0  0  0  0  0  0  0
    5.0926   25.5392    3.5739 C   0  0  0  0  0  0  0  0  0  0  0  0
    4.5478   24.5143    6.1794 C   0  0  0  0  0  0  0  0  0  0  0  0
    5.0379   26.3872    4.6986 C   0  0  0  0  0  0  0  0  0  0  0  0
   -2.3931   29.4952    8.3294 C   0  0  0  0  0  0  0  0  0  0  0  0
   -1.7804   30.1728    9.5365 C   0  0  0  0  0  0  0  0  0  0  0  0
    4.7934   26.8131    7.1273 C   0  0  0  0  0  0  0  0  0  0  0  0
    0.7298   28.9888    7.6815 C   0  0  0  0  0  0  0  0  0  0  0  0
    3.3722   27.3470    7.4007 C   0  0  0  0  0  0  0  0  0  0  0  0
    1.9480   29.3108    6.9599 C   0  0  0  0  0  0  0  0  0  0  0  0
    4.8761   24.1581    3.8031 C   0  0  0  0  0  0  0  0  0  0  0  0
   -0.0271   30.1810    7.6200 C   0  0  0  0  0  0  0  0  0  0  0  0
    4.7856   25.9054    5.9758 C   0  0  0  0  0  0  0  0  0  0  0  0
   -1.3419   30.5566    8.1470 C   0  0  0  0  0  0  0  0  0  0  0  0
    4.3945   23.3625    1.5535 C   0  0  0  0  0  0  0  0  0  0  0  0
    2.5888   31.0794    5.9608 H   0  0  0  0  0  0  0  0  0  0  0  0
    3.8310   28.9749    6.2556 H   0  0  0  0  0  0  0  0  0  0  0  0
    4.4093   22.6599    5.2043 H   0  0  0  0  0  0  0  0  0  0  0  0
    5.2756   25.8957    2.6577 H   0  0  0  0  0  0  0  0  0  0  0  0
    4.3557   24.1652    7.0966 H   0  0  0  0  0  0  0  0  0  0  0  0
    5.1857   27.3681    4.5723 H   0  0  0  0  0  0  0  0  0  0  0  0
   -3.3427   29.6832    8.0785 H   0  0  0  0  0  0  0  0  0  0  0  0
   -2.1786   28.5391    8.1298 H   0  0  0  0  0  0  0  0  0  0  0  0
   -1.1605   29.6650   10.1347 H   0  0  0  0  0  0  0  0  0  0  0  0
   -2.3246   30.8091   10.0833 H   0  0  0  0  0  0  0  0  0  0  0  0
    5.1209   26.3200    7.9333 H   0  0  0  0  0  0  0  0  0  0  0  0
    5.4033   27.5822    6.9364 H   0  0  0  0  0  0  0  0  0  0  0  0
    0.4836   28.1245    8.1201 H   0  0  0  0  0  0  0  0  0  0  0  0
   -1.6868   31.4387    7.8263 H   0  0  0  0  0  0  0  0  0  0  0  0
  1 23  1  0  0  0  0
  2 23  1  0  0  0  0
  3 23  1  0  0  0  0
  4 17  2  0  0  0  0
  5 19  1  0  0  0  0
  5 23  1  0  0  0  0
  6  7  1  0  0  0  0
  6 18  1  0  0  0  0
  7 20  2  0  0  0  0
  8 17  1  0  0  0  0
  8 18  1  0  0  0  0
  9 11  2  0  0  0  0
  9 19  1  0  0  0  0
 10 12  1  0  0  0  0
 10 19  2  0  0  0  0
 11 21  1  0  0  0  0
 12 21  2  0  0  0  0
 13 14  1  0  0  0  0
 13 22  1  0  0  0  0
 14 22  1  0  0  0  0
 15 17  1  0  0  0  0
 15 21  1  0  0  0  0
 16 18  2  0  0  0  0
 16 20  1  0  0  0  0
 20 22  1  0  0  0  0
  6 24  1  0  0  0  0
  8 25  1  0  0  0  0
  9 26  1  0  0  0  0
 10 27  1  0  0  0  0
 11 28  1  0  0  0  0
 12 29  1  0  0  0  0
 13 30  1  0  0  0  0
 13 31  1  0  0  0  0
 14 32  1  0  0  0  0
 14 33  1  0  0  0  0
 15 34  1  0  0  0  0
 15 35  1  0  0  0  0
 16 36  1  0  0  0  0
 22 37  1  0  0  0  0
M  END
$$$$
