11K_A_301
          05071912473D 1   1.00000     0.00000     0
            
 52 55  0  0  0  0            999 V2000
    2.5119   26.7983    8.1123 O   0  0  0  0  0  0  0  0  0  0  0  0
    4.7640   22.7911    3.2213 O   0  0  0  0  0  0  0  0  0  0  0  0
    1.8441   30.5970    6.5285 N   0  0  0  0  0  0  0  0  0  0  0  0
    0.7572   31.1180    6.8866 N   0  0  0  0  0  0  0  0  0  0  0  0
    3.0250   28.5995    6.7864 N   0  0  0  0  0  0  0  0  0  0  0  0
    4.9798   20.3489    1.8655 N   0  0  0  0  0  0  0  0  0  0  0  0
    3.8588   21.7121    3.6330 C   0  0  0  0  0  0  0  0  0  0  0  0
    4.1159   20.3035    3.0632 C   0  0  0  0  0  0  0  0  0  0  0  0
    4.6649   19.1878    1.0213 C   0  0  0  0  0  0  0  0  0  0  0  0
    6.3662   20.1079    2.2966 C   0  0  0  0  0  0  0  0  0  0  0  0
    5.9292   18.9883    0.1832 C   0  0  0  0  0  0  0  0  0  0  0  0
    7.0672   19.5182    1.0667 C   0  0  0  0  0  0  0  0  0  0  0  0
    4.9533   25.0997    3.7843 C   0  0  0  0  0  0  0  0  0  0  0  0
    4.5105   23.4662    5.5095 C   0  0  0  0  0  0  0  0  0  0  0  0
    4.9546   26.0926    4.7600 C   0  0  0  0  0  0  0  0  0  0  0  0
    4.4929   24.4661    6.4824 C   0  0  0  0  0  0  0  0  0  0  0  0
   -1.7579   30.1626    9.5322 C   0  0  0  0  0  0  0  0  0  0  0  0
   -2.4210   29.5409    8.2989 C   0  0  0  0  0  0  0  0  0  0  0  0
    4.7023   26.8692    7.1598 C   0  0  0  0  0  0  0  0  0  0  0  0
    0.7683   29.0597    7.6554 C   0  0  0  0  0  0  0  0  0  0  0  0
    3.2887   27.4176    7.3846 C   0  0  0  0  0  0  0  0  0  0  0  0
    1.8849   29.3237    6.9301 C   0  0  0  0  0  0  0  0  0  0  0  0
    4.7434   23.7760    4.1671 C   0  0  0  0  0  0  0  0  0  0  0  0
    0.0478   30.1960    7.5586 C   0  0  0  0  0  0  0  0  0  0  0  0
    4.6990   25.7859    6.0954 C   0  0  0  0  0  0  0  0  0  0  0  0
   -1.3377   30.5968    8.1075 C   0  0  0  0  0  0  0  0  0  0  0  0
    2.5675   31.0646    6.0206 H   0  0  0  0  0  0  0  0  0  0  0  0
    3.7307   28.9740    6.1851 H   0  0  0  0  0  0  0  0  0  0  0  0
    2.9338   21.9791    3.3629 H   0  0  0  0  0  0  0  0  0  0  0  0
    3.9087   21.6446    4.6295 H   0  0  0  0  0  0  0  0  0  0  0  0
    4.5620   19.7467    3.7639 H   0  0  0  0  0  0  0  0  0  0  0  0
    3.2401   19.8891    2.8157 H   0  0  0  0  0  0  0  0  0  0  0  0
    3.8764   19.3768    0.4361 H   0  0  0  0  0  0  0  0  0  0  0  0
    4.4784   18.3807    1.5816 H   0  0  0  0  0  0  0  0  0  0  0  0
    6.3898   19.4608    3.0587 H   0  0  0  0  0  0  0  0  0  0  0  0
    6.8023   20.9643    2.5728 H   0  0  0  0  0  0  0  0  0  0  0  0
    5.8732   19.5077   -0.6694 H   0  0  0  0  0  0  0  0  0  0  0  0
    6.0656   18.0197   -0.0249 H   0  0  0  0  0  0  0  0  0  0  0  0
    7.6811   18.7753    1.3336 H   0  0  0  0  0  0  0  0  0  0  0  0
    7.5873   20.2238    0.5856 H   0  0  0  0  0  0  0  0  0  0  0  0
    5.1008   25.3327    2.8231 H   0  0  0  0  0  0  0  0  0  0  0  0
    4.3543   22.5152    5.7765 H   0  0  0  0  0  0  0  0  0  0  0  0
    5.1417   27.0397    4.4990 H   0  0  0  0  0  0  0  0  0  0  0  0
    4.3346   24.2374    7.4429 H   0  0  0  0  0  0  0  0  0  0  0  0
   -1.1354   29.6187   10.0948 H   0  0  0  0  0  0  0  0  0  0  0  0
   -2.2732   30.7898   10.1162 H   0  0  0  0  0  0  0  0  0  0  0  0
   -3.3726   29.7588    8.0821 H   0  0  0  0  0  0  0  0  0  0  0  0
   -2.2348   28.5877    8.0607 H   0  0  0  0  0  0  0  0  0  0  0  0
    5.0449   26.4850    8.0172 H   0  0  0  0  0  0  0  0  0  0  0  0
    5.3003   27.6150    6.8663 H   0  0  0  0  0  0  0  0  0  0  0  0
    0.5347   28.2202    8.1461 H   0  0  0  0  0  0  0  0  0  0  0  0
   -1.6655   31.4974    7.8220 H   0  0  0  0  0  0  0  0  0  0  0  0
  1 21  2  0  0  0  0
  2  7  1  0  0  0  0
  2 23  1  0  0  0  0
  3  4  1  0  0  0  0
  3 22  1  0  0  0  0
  4 24  2  0  0  0  0
  5 21  1  0  0  0  0
  5 22  1  0  0  0  0
  6  8  1  0  0  0  0
  6  9  1  0  0  0  0
  6 10  1  0  0  0  0
  7  8  1  0  0  0  0
  9 11  1  0  0  0  0
 10 12  1  0  0  0  0
 11 12  1  0  0  0  0
 13 15  2  0  0  0  0
 13 23  1  0  0  0  0
 14 16  1  0  0  0  0
 14 23  2  0  0  0  0
 15 25  1  0  0  0  0
 16 25  2  0  0  0  0
 17 18  1  0  0  0  0
 17 26  1  0  0  0  0
 18 26  1  0  0  0  0
 19 21  1  0  0  0  0
 19 25  1  0  0  0  0
 20 22  2  0  0  0  0
 20 24  1  0  0  0  0
 24 26  1  0  0  0  0
  3 27  1  0  0  0  0
  5 28  1  0  0  0  0
  7 29  1  0  0  0  0
  7 30  1  0  0  0  0
  8 31  1  0  0  0  0
  8 32  1  0  0  0  0
  9 33  1  0  0  0  0
  9 34  1  0  0  0  0
 10 35  1  0  0  0  0
 10 36  1  0  0  0  0
 11 37  1  0  0  0  0
 11 38  1  0  0  0  0
 12 39  1  0  0  0  0
 12 40  1  0  0  0  0
 13 41  1  0  0  0  0
 14 42  1  0  0  0  0
 15 43  1  0  0  0  0
 16 44  1  0  0  0  0
 17 45  1  0  0  0  0
 17 46  1  0  0  0  0
 18 47  1  0  0  0  0
 18 48  1  0  0  0  0
 19 49  1  0  0  0  0
 19 50  1  0  0  0  0
 20 51  1  0  0  0  0
 26 52  1  0  0  0  0
M  END
$$$$
