CK2_A_300
          05071912473D 1   1.00000     0.00000     0
            
 24 25  0  0  0  0            999 V2000
    0.0306   25.2312    8.2015 S   0  0  0  0  0  0  0  0  0  0  0  0
   -0.1940   31.3982    7.6322 N   0  0  0  0  0  0  0  0  0  0  0  0
    1.4082   30.1447    6.5339 N   0  0  0  0  0  0  0  0  0  0  0  0
   -0.6754   25.5962   10.5932 N   0  0  0  0  0  0  0  0  0  0  0  0
   -0.0501   29.2241    8.2166 N   0  0  0  0  0  0  0  0  0  0  0  0
   -0.9221   23.2041   10.0133 C   0  0  0  0  0  0  0  0  0  0  0  0
   -0.4172   27.9042   11.1258 C   0  0  0  0  0  0  0  0  0  0  0  0
    1.9634   28.9477    6.3258 C   0  0  0  0  0  0  0  0  0  0  0  0
    1.5477   27.8726    7.1026 C   0  0  0  0  0  0  0  0  0  0  0  0
   -0.5538   24.6392    9.6967 C   0  0  0  0  0  0  0  0  0  0  0  0
    0.3799   30.2582    7.4273 C   0  0  0  0  0  0  0  0  0  0  0  0
    0.0852   26.8651    8.7966 C   0  0  0  0  0  0  0  0  0  0  0  0
   -0.3330   26.8377   10.1397 C   0  0  0  0  0  0  0  0  0  0  0  0
    0.5150   28.0013    8.0479 C   0  0  0  0  0  0  0  0  0  0  0  0
   -0.9454   31.4689    8.2884 H   0  0  0  0  0  0  0  0  0  0  0  0
    0.1133   32.2093    7.1346 H   0  0  0  0  0  0  0  0  0  0  0  0
   -1.2342   23.1414   10.9613 H   0  0  0  0  0  0  0  0  0  0  0  0
   -1.6538   22.9048    9.4009 H   0  0  0  0  0  0  0  0  0  0  0  0
   -0.1212   22.6187    9.8867 H   0  0  0  0  0  0  0  0  0  0  0  0
   -0.1493   28.7703   10.7037 H   0  0  0  0  0  0  0  0  0  0  0  0
   -1.3564   27.9738   11.4621 H   0  0  0  0  0  0  0  0  0  0  0  0
    0.1961   27.7016   11.8891 H   0  0  0  0  0  0  0  0  0  0  0  0
    2.6653   28.8272    5.6238 H   0  0  0  0  0  0  0  0  0  0  0  0
    1.9944   26.9855    6.9863 H   0  0  0  0  0  0  0  0  0  0  0  0
  1 10  1  0  0  0  0
  1 12  1  0  0  0  0
  2 11  1  0  0  0  0
  3  8  1  0  0  0  0
  3 11  2  0  0  0  0
  4 10  2  0  0  0  0
  4 13  1  0  0  0  0
  5 11  1  0  0  0  0
  5 14  2  0  0  0  0
  6 10  1  0  0  0  0
  7 13  1  0  0  0  0
  8  9  2  0  0  0  0
  9 14  1  0  0  0  0
 12 13  2  0  0  0  0
 12 14  1  0  0  0  0
  2 15  1  0  0  0  0
  2 16  1  0  0  0  0
  6 17  1  0  0  0  0
  6 18  1  0  0  0  0
  6 19  1  0  0  0  0
  7 20  1  0  0  0  0
  7 21  1  0  0  0  0
  7 22  1  0  0  0  0
  8 23  1  0  0  0  0
  9 24  1  0  0  0  0
M  END
$$$$
