45K_A_301
          05071912473D 1   1.00000     0.00000     0
            
 39 43  0  0  0  0            999 V2000
   -0.5270   26.6267    9.8742 S   0  0  0  0  0  0  0  0  0  0  0  0
    6.9904   23.3969    7.8476 S   0  0  0  0  0  0  0  0  0  0  0  0
    7.9417   24.3799    8.4492 O   0  0  0  0  0  0  0  0  0  0  0  0
    7.3462   21.9526    8.0617 O   0  0  0  0  0  0  0  0  0  0  0  0
    2.0024   30.4363    6.1656 O   0  0  0  0  0  0  0  0  0  0  0  0
   -2.5282   27.7091   10.8114 N   0  0  0  0  0  0  0  0  0  0  0  0
    2.9331   27.9417    6.7655 N   0  0  0  0  0  0  0  0  0  0  0  0
    0.1270   30.9970    7.3385 N   0  0  0  0  0  0  0  0  0  0  0  0
   -1.8879   26.5280   10.8837 C   0  0  0  0  0  0  0  0  0  0  0  0
    6.7841   23.7631    6.0743 C   0  0  0  0  0  0  0  0  0  0  0  0
    5.2841   23.7500    8.2875 C   0  0  0  0  0  0  0  0  0  0  0  0
    1.8136   27.8449    7.4941 C   0  0  0  0  0  0  0  0  0  0  0  0
    4.6139   26.9510    5.4269 C   0  0  0  0  0  0  0  0  0  0  0  0
   -2.4836   29.9382    9.7767 C   0  0  0  0  0  0  0  0  0  0  0  0
   -1.8241   30.7744    8.8747 C   0  0  0  0  0  0  0  0  0  0  0  0
    5.5610   25.9443    5.2059 C   0  0  0  0  0  0  0  0  0  0  0  0
    4.0471   25.9665    7.5419 C   0  0  0  0  0  0  0  0  0  0  0  0
   -0.8318   28.2211    9.3368 C   0  0  0  0  0  0  0  0  0  0  0  0
    1.0661   30.1420    6.9181 C   0  0  0  0  0  0  0  0  0  0  0  0
    3.8066   26.9389    6.5714 C   0  0  0  0  0  0  0  0  0  0  0  0
   -2.0116   28.6436    9.9997 C   0  0  0  0  0  0  0  0  0  0  0  0
   -0.6793   30.3478    8.1938 C   0  0  0  0  0  0  0  0  0  0  0  0
    5.7687   24.9336    6.1512 C   0  0  0  0  0  0  0  0  0  0  0  0
    4.9628   24.9240    7.3248 C   0  0  0  0  0  0  0  0  0  0  0  0
    0.9693   28.9528    7.6399 C   0  0  0  0  0  0  0  0  0  0  0  0
   -0.1656   29.0644    8.4421 C   0  0  0  0  0  0  0  0  0  0  0  0
    3.1332   28.8222    6.3357 H   0  0  0  0  0  0  0  0  0  0  0  0
    0.0405   31.9545    7.0634 H   0  0  0  0  0  0  0  0  0  0  0  0
   -2.1630   25.7377   11.4312 H   0  0  0  0  0  0  0  0  0  0  0  0
    6.4104   22.9809    5.5758 H   0  0  0  0  0  0  0  0  0  0  0  0
    7.6451   24.0469    5.6523 H   0  0  0  0  0  0  0  0  0  0  0  0
    5.2022   24.0278    9.2446 H   0  0  0  0  0  0  0  0  0  0  0  0
    4.6911   22.9631    8.1168 H   0  0  0  0  0  0  0  0  0  0  0  0
    1.5797   26.9787    7.9355 H   0  0  0  0  0  0  0  0  0  0  0  0
    4.5123   27.6883    4.7590 H   0  0  0  0  0  0  0  0  0  0  0  0
   -3.2936   30.2662   10.2628 H   0  0  0  0  0  0  0  0  0  0  0  0
   -2.1768   31.6959    8.7121 H   0  0  0  0  0  0  0  0  0  0  0  0
    6.0963   25.9474    4.3613 H   0  0  0  0  0  0  0  0  0  0  0  0
    3.5564   26.0126    8.4120 H   0  0  0  0  0  0  0  0  0  0  0  0
  1  9  1  0  0  0  0
  1 18  1  0  0  0  0
  2  3  2  0  0  0  0
  2  4  2  0  0  0  0
  2 10  1  0  0  0  0
  2 11  1  0  0  0  0
  5 19  2  0  0  0  0
  6  9  2  0  0  0  0
  6 21  1  0  0  0  0
  7 12  1  0  0  0  0
  7 20  1  0  0  0  0
  8 19  1  0  0  0  0
  8 22  1  0  0  0  0
 10 23  1  0  0  0  0
 11 24  1  0  0  0  0
 12 25  2  0  0  0  0
 13 16  1  0  0  0  0
 13 20  2  0  0  0  0
 14 15  1  0  0  0  0
 14 21  2  0  0  0  0
 15 22  2  0  0  0  0
 16 23  2  0  0  0  0
 17 20  1  0  0  0  0
 17 24  2  0  0  0  0
 18 21  1  0  0  0  0
 18 26  2  0  0  0  0
 19 25  1  0  0  0  0
 22 26  1  0  0  0  0
 23 24  1  0  0  0  0
 25 26  1  0  0  0  0
  7 27  1  0  0  0  0
  8 28  1  0  0  0  0
  9 29  1  0  0  0  0
 10 30  1  0  0  0  0
 10 31  1  0  0  0  0
 11 32  1  0  0  0  0
 11 33  1  0  0  0  0
 12 34  1  0  0  0  0
 13 35  1  0  0  0  0
 14 36  1  0  0  0  0
 15 37  1  0  0  0  0
 16 38  1  0  0  0  0
 17 39  1  0  0  0  0
M  END
$$$$
