46K_A_301
          05071912473D 1   1.00000     0.00000     0
            
 42 45  0  0  0  0            999 V2000
   -0.6660   26.9395   10.0957 S   0  0  0  0  0  0  0  0  0  0  0  0
    7.1011   23.8734    7.2586 S   0  0  0  0  0  0  0  0  0  0  0  0
    7.7734   23.8186    5.9950 O   0  0  0  0  0  0  0  0  0  0  0  0
    7.8497   24.3286    8.3846 O   0  0  0  0  0  0  0  0  0  0  0  0
    4.9100   20.6788    7.2263 O   0  0  0  0  0  0  0  0  0  0  0  0
    1.9923   30.4343    6.1405 O   0  0  0  0  0  0  0  0  0  0  0  0
   -2.8263   28.1987   10.9244 N   0  0  0  0  0  0  0  0  0  0  0  0
    6.3168   22.4451    7.6352 N   0  0  0  0  0  0  0  0  0  0  0  0
    2.8531   27.9427    6.9528 N   0  0  0  0  0  0  0  0  0  0  0  0
    0.0635   31.1274    7.2706 N   0  0  0  0  0  0  0  0  0  0  0  0
    5.1441   22.2241    5.3895 C   0  0  0  0  0  0  0  0  0  0  0  0
   -2.1308   27.1147   11.0424 C   0  0  0  0  0  0  0  0  0  0  0  0
    1.7666   28.0371    7.7788 C   0  0  0  0  0  0  0  0  0  0  0  0
    5.7554   25.8251    5.9943 C   0  0  0  0  0  0  0  0  0  0  0  0
    4.8973   25.0941    8.1262 C   0  0  0  0  0  0  0  0  0  0  0  0
    4.7716   26.8039    5.9379 C   0  0  0  0  0  0  0  0  0  0  0  0
    3.9175   26.0668    8.0929 C   0  0  0  0  0  0  0  0  0  0  0  0
   -2.6412   30.3174    9.7222 C   0  0  0  0  0  0  0  0  0  0  0  0
   -1.8916   31.0893    8.8059 C   0  0  0  0  0  0  0  0  0  0  0  0
    5.4146   21.7106    6.7821 C   0  0  0  0  0  0  0  0  0  0  0  0
    5.8322   24.9537    7.1160 C   0  0  0  0  0  0  0  0  0  0  0  0
   -1.0058   28.5047    9.4526 C   0  0  0  0  0  0  0  0  0  0  0  0
    1.0864   30.2630    6.9510 C   0  0  0  0  0  0  0  0  0  0  0  0
    3.8271   26.9251    6.9665 C   0  0  0  0  0  0  0  0  0  0  0  0
   -2.1802   29.0579   10.0060 C   0  0  0  0  0  0  0  0  0  0  0  0
   -0.7890   30.5297    8.2243 C   0  0  0  0  0  0  0  0  0  0  0  0
    0.9243   29.0506    7.7529 C   0  0  0  0  0  0  0  0  0  0  0  0
   -0.2890   29.2304    8.5367 C   0  0  0  0  0  0  0  0  0  0  0  0
    6.4475   22.0012    8.5394 H   0  0  0  0  0  0  0  0  0  0  0  0
    3.0211   28.6735    6.2676 H   0  0  0  0  0  0  0  0  0  0  0  0
   -0.0639   32.0626    6.8958 H   0  0  0  0  0  0  0  0  0  0  0  0
    4.5533   21.5041    4.8246 H   0  0  0  0  0  0  0  0  0  0  0  0
    6.0563   22.3902    4.8194 H   0  0  0  0  0  0  0  0  0  0  0  0
    4.5684   23.1482    5.3910 H   0  0  0  0  0  0  0  0  0  0  0  0
   -2.3949   26.3024   11.7179 H   0  0  0  0  0  0  0  0  0  0  0  0
    1.5523   27.2021    8.4413 H   0  0  0  0  0  0  0  0  0  0  0  0
    6.4470   25.7282    5.1597 H   0  0  0  0  0  0  0  0  0  0  0  0
    4.9182   24.4058    8.9691 H   0  0  0  0  0  0  0  0  0  0  0  0
    4.7206   27.4452    5.0593 H   0  0  0  0  0  0  0  0  0  0  0  0
    3.2793   26.1879    8.9631 H   0  0  0  0  0  0  0  0  0  0  0  0
   -3.5378   30.7129   10.1969 H   0  0  0  0  0  0  0  0  0  0  0  0
   -2.1430   32.1325    8.6343 H   0  0  0  0  0  0  0  0  0  0  0  0
  1 12  1  0  0  0  0
  1 22  1  0  0  0  0
  2  3  2  0  0  0  0
  2  4  2  0  0  0  0
  2  8  1  0  0  0  0
  2 21  1  0  0  0  0
  5 20  2  0  0  0  0
  6 23  2  0  0  0  0
  7 12  2  0  0  0  0
  7 25  1  0  0  0  0
  8 20  1  0  0  0  0
  8 29  1  0  0  0  0
  9 13  1  0  0  0  0
  9 24  1  0  0  0  0
  9 30  1  0  0  0  0
 10 23  1  0  0  0  0
 10 26  1  0  0  0  0
 10 31  1  0  0  0  0
 11 20  1  0  0  0  0
 11 32  1  0  0  0  0
 11 33  1  0  0  0  0
 11 34  1  0  0  0  0
 12 35  1  0  0  0  0
 13 27  2  0  0  0  0
 13 36  1  0  0  0  0
 14 16  1  0  0  0  0
 14 21  2  0  0  0  0
 14 37  1  0  0  0  0
 15 17  2  0  0  0  0
 15 21  1  0  0  0  0
 15 38  1  0  0  0  0
 16 24  2  0  0  0  0
 16 39  1  0  0  0  0
 17 24  1  0  0  0  0
 17 40  1  0  0  0  0
 18 19  1  0  0  0  0
 18 25  2  0  0  0  0
 18 41  1  0  0  0  0
 19 26  2  0  0  0  0
 19 42  1  0  0  0  0
 22 25  1  0  0  0  0
 22 28  2  0  0  0  0
 23 27  1  0  0  0  0
 26 28  1  0  0  0  0
 27 28  1  0  0  0  0
M  END
$$$$
