48K_A_301
          05071912473D 1   1.00000     0.00000     0
            
 49 51  0  0  0  0            999 V2000
    6.9712   23.8368    7.1323 S   0  0  0  0  0  0  0  0  0  0  0  0
    7.6451   24.0554    8.3774 O   0  0  0  0  0  0  0  0  0  0  0  0
    7.7205   23.8885    5.9137 O   0  0  0  0  0  0  0  0  0  0  0  0
    1.9403   30.5072    6.0903 O   0  0  0  0  0  0  0  0  0  0  0  0
    6.2924   22.3729    7.2166 N   0  0  0  0  0  0  0  0  0  0  0  0
    2.7114   27.9450    6.8877 N   0  0  0  0  0  0  0  0  0  0  0  0
    0.0706   31.2183    7.3144 N   0  0  0  0  0  0  0  0  0  0  0  0
    4.6898   20.8772    4.3565 N   0  0  0  0  0  0  0  0  0  0  0  0
    4.3430   21.1074    2.9288 C   0  0  0  0  0  0  0  0  0  0  0  0
    5.7984   19.8891    4.4680 C   0  0  0  0  0  0  0  0  0  0  0  0
    1.6635   28.0240    7.6921 C   0  0  0  0  0  0  0  0  0  0  0  0
   -2.6158   30.3894    9.7892 C   0  0  0  0  0  0  0  0  0  0  0  0
   -2.2605   29.0543    9.9950 C   0  0  0  0  0  0  0  0  0  0  0  0
    5.5886   25.8423    5.9212 C   0  0  0  0  0  0  0  0  0  0  0  0
    4.8176   25.1622    8.0974 C   0  0  0  0  0  0  0  0  0  0  0  0
    4.6201   26.8284    5.8888 C   0  0  0  0  0  0  0  0  0  0  0  0
    3.8331   26.1263    8.0451 C   0  0  0  0  0  0  0  0  0  0  0  0
   -1.8741   31.1933    8.9264 C   0  0  0  0  0  0  0  0  0  0  0  0
   -1.1325   28.5180    9.3787 C   0  0  0  0  0  0  0  0  0  0  0  0
    5.0111   22.0381    6.5794 C   0  0  0  0  0  0  0  0  0  0  0  0
    5.0033   22.1608    5.0654 C   0  0  0  0  0  0  0  0  0  0  0  0
    1.0323   30.3502    6.9222 C   0  0  0  0  0  0  0  0  0  0  0  0
    5.6834   25.0227    7.0333 C   0  0  0  0  0  0  0  0  0  0  0  0
    3.7172   26.9529    6.9340 C   0  0  0  0  0  0  0  0  0  0  0  0
   -0.7967   30.6341    8.2615 C   0  0  0  0  0  0  0  0  0  0  0  0
    0.7953   29.0890    7.7141 C   0  0  0  0  0  0  0  0  0  0  0  0
   -0.3881   29.3059    8.5020 C   0  0  0  0  0  0  0  0  0  0  0  0
    6.6969   21.5940    7.7267 H   0  0  0  0  0  0  0  0  0  0  0  0
    2.8502   28.6469    6.1675 H   0  0  0  0  0  0  0  0  0  0  0  0
   -0.0193   32.1770    6.9949 H   0  0  0  0  0  0  0  0  0  0  0  0
    4.0273   20.1883    2.4359 H   0  0  0  0  0  0  0  0  0  0  0  0
    5.1866   21.4916    2.3575 H   0  0  0  0  0  0  0  0  0  0  0  0
    3.5338   21.8239    2.8006 H   0  0  0  0  0  0  0  0  0  0  0  0
    6.5078   19.9648    3.6449 H   0  0  0  0  0  0  0  0  0  0  0  0
    6.3935   20.0095    5.3724 H   0  0  0  0  0  0  0  0  0  0  0  0
    5.4373   18.8617    4.4802 H   0  0  0  0  0  0  0  0  0  0  0  0
    1.3927   27.1851    8.3312 H   0  0  0  0  0  0  0  0  0  0  0  0
   -3.4479   30.8473   10.3191 H   0  0  0  0  0  0  0  0  0  0  0  0
   -2.8833   28.4181   10.6218 H   0  0  0  0  0  0  0  0  0  0  0  0
    6.2430   25.7141    5.0597 H   0  0  0  0  0  0  0  0  0  0  0  0
    4.8955   24.5131    8.9668 H   0  0  0  0  0  0  0  0  0  0  0  0
    4.5488   27.4645    5.0087 H   0  0  0  0  0  0  0  0  0  0  0  0
    3.1825   26.2135    8.9127 H   0  0  0  0  0  0  0  0  0  0  0  0
   -2.0937   32.2553    8.8349 H   0  0  0  0  0  0  0  0  0  0  0  0
   -0.8106   27.4988    9.5846 H   0  0  0  0  0  0  0  0  0  0  0  0
    4.7403   21.0231    6.8646 H   0  0  0  0  0  0  0  0  0  0  0  0
    4.2194   22.6402    7.0206 H   0  0  0  0  0  0  0  0  0  0  0  0
    4.2910   22.9258    4.7610 H   0  0  0  0  0  0  0  0  0  0  0  0
    5.9588   22.5077    4.6759 H   0  0  0  0  0  0  0  0  0  0  0  0
  1  2  2  0  0  0  0
  1  3  2  0  0  0  0
  1  5  1  0  0  0  0
  1 23  1  0  0  0  0
  4 22  2  0  0  0  0
  5 20  1  0  0  0  0
  5 28  1  0  0  0  0
  6 11  1  0  0  0  0
  6 24  1  0  0  0  0
  6 29  1  0  0  0  0
  7 22  1  0  0  0  0
  7 25  1  0  0  0  0
  7 30  1  0  0  0  0
  8  9  1  0  0  0  0
  8 10  1  0  0  0  0
  8 21  1  0  0  0  0
  9 31  1  0  0  0  0
  9 32  1  0  0  0  0
  9 33  1  0  0  0  0
 10 34  1  0  0  0  0
 10 35  1  0  0  0  0
 10 36  1  0  0  0  0
 11 26  2  0  0  0  0
 11 37  1  0  0  0  0
 12 13  2  0  0  0  0
 12 18  1  0  0  0  0
 12 38  1  0  0  0  0
 13 19  1  0  0  0  0
 13 39  1  0  0  0  0
 14 16  1  0  0  0  0
 14 23  2  0  0  0  0
 14 40  1  0  0  0  0
 15 17  2  0  0  0  0
 15 23  1  0  0  0  0
 15 41  1  0  0  0  0
 16 24  2  0  0  0  0
 16 42  1  0  0  0  0
 17 24  1  0  0  0  0
 17 43  1  0  0  0  0
 18 25  2  0  0  0  0
 18 44  1  0  0  0  0
 19 27  2  0  0  0  0
 19 45  1  0  0  0  0
 20 21  1  0  0  0  0
 20 46  1  0  0  0  0
 20 47  1  0  0  0  0
 21 48  1  0  0  0  0
 21 49  1  0  0  0  0
 22 26  1  0  0  0  0
 25 27  1  0  0  0  0
 26 27  1  0  0  0  0
M  END
$$$$
