61K_A_301
          05071912473D 1   1.00000     0.00000     0
            
 51 54  0  0  0  0            999 V2000
    6.8148   23.7901    7.5193 S   0  0  0  0  0  0  0  0  0  0  0  0
    7.2798   23.4024    6.1527 O   0  0  0  0  0  0  0  0  0  0  0  0
    7.9400   24.4476    8.2479 O   0  0  0  0  0  0  0  0  0  0  0  0
   -4.2552   28.3022   10.9494 O   0  0  0  0  0  0  0  0  0  0  0  0
    1.9699   30.4927    6.1318 O   0  0  0  0  0  0  0  0  0  0  0  0
    6.2471   22.5155    8.3643 N   0  0  0  0  0  0  0  0  0  0  0  0
    2.7496   27.9855    6.9525 N   0  0  0  0  0  0  0  0  0  0  0  0
    1.6662   27.9910    7.5764 N   0  0  0  0  0  0  0  0  0  0  0  0
   -0.1425   23.2335   10.4919 N   0  0  0  0  0  0  0  0  0  0  0  0
   -1.5289   22.9792   12.1175 N   0  0  0  0  0  0  0  0  0  0  0  0
   -2.5057   26.8892   11.2433 N   0  0  0  0  0  0  0  0  0  0  0  0
    0.0932   31.1243    7.2567 N   0  0  0  0  0  0  0  0  0  0  0  0
   -0.3565   22.5794   11.6315 C   0  0  0  0  0  0  0  0  0  0  0  0
   -3.2346   25.9509   12.1255 C   0  0  0  0  0  0  0  0  0  0  0  0
   -1.1877   24.0298   10.2674 C   0  0  0  0  0  0  0  0  0  0  0  0
   -3.3856   24.5931   11.4297 C   0  0  0  0  0  0  0  0  0  0  0  0
    4.5833   25.1244    8.2969 C   0  0  0  0  0  0  0  0  0  0  0  0
    5.6522   25.8655    6.2434 C   0  0  0  0  0  0  0  0  0  0  0  0
    3.6112   26.1142    8.1448 C   0  0  0  0  0  0  0  0  0  0  0  0
    4.6830   26.8738    6.1170 C   0  0  0  0  0  0  0  0  0  0  0  0
   -1.9069   30.9808    8.7389 C   0  0  0  0  0  0  0  0  0  0  0  0
   -2.6294   30.1664    9.6167 C   0  0  0  0  0  0  0  0  0  0  0  0
   -1.0310   28.3743    9.2348 C   0  0  0  0  0  0  0  0  0  0  0  0
    5.5931   25.0030    7.3407 C   0  0  0  0  0  0  0  0  0  0  0  0
   -3.0721   27.9949   10.7703 C   0  0  0  0  0  0  0  0  0  0  0  0
    1.0353   30.2488    6.9023 C   0  0  0  0  0  0  0  0  0  0  0  0
    3.6463   26.9867    7.0472 C   0  0  0  0  0  0  0  0  0  0  0  0
   -2.0422   23.8789   11.2759 C   0  0  0  0  0  0  0  0  0  0  0  0
   -0.7389   30.5183    8.1309 C   0  0  0  0  0  0  0  0  0  0  0  0
    0.8088   29.0269    7.5408 C   0  0  0  0  0  0  0  0  0  0  0  0
   -2.2088   28.8547    9.8390 C   0  0  0  0  0  0  0  0  0  0  0  0
   -0.2907   29.2171    8.3843 C   0  0  0  0  0  0  0  0  0  0  0  0
    5.9486   22.8212    9.2684 H   0  0  0  0  0  0  0  0  0  0  0  0
    5.4734   22.1105    7.8771 H   0  0  0  0  0  0  0  0  0  0  0  0
    2.9596   28.7596    6.3552 H   0  0  0  0  0  0  0  0  0  0  0  0
    0.6627   23.1431    9.9059 H   0  0  0  0  0  0  0  0  0  0  0  0
   -1.5586   26.6853   10.9955 H   0  0  0  0  0  0  0  0  0  0  0  0
    0.0164   32.0668    6.9312 H   0  0  0  0  0  0  0  0  0  0  0  0
    0.2552   21.9069   12.0482 H   0  0  0  0  0  0  0  0  0  0  0  0
   -4.1407   26.3224   12.3284 H   0  0  0  0  0  0  0  0  0  0  0  0
   -2.7246   25.8323   12.9774 H   0  0  0  0  0  0  0  0  0  0  0  0
   -1.3082   24.6342    9.4799 H   0  0  0  0  0  0  0  0  0  0  0  0
   -3.7811   24.7369   10.5226 H   0  0  0  0  0  0  0  0  0  0  0  0
   -3.9974   24.0179   11.9727 H   0  0  0  0  0  0  0  0  0  0  0  0
    4.5567   24.5078    9.0838 H   0  0  0  0  0  0  0  0  0  0  0  0
    6.3739   25.7665    5.5583 H   0  0  0  0  0  0  0  0  0  0  0  0
    2.8829   26.2020    8.8245 H   0  0  0  0  0  0  0  0  0  0  0  0
    4.7351   27.5176    5.3536 H   0  0  0  0  0  0  0  0  0  0  0  0
   -2.2313   31.9064    8.5444 H   0  0  0  0  0  0  0  0  0  0  0  0
   -3.4408   30.5213   10.0813 H   0  0  0  0  0  0  0  0  0  0  0  0
   -0.7221   27.4393    9.4090 H   0  0  0  0  0  0  0  0  0  0  0  0
  1  2  2  0  0  0  0
  1  3  2  0  0  0  0
  1  6  1  0  0  0  0
  1 24  1  0  0  0  0
  4 25  2  0  0  0  0
  5 26  2  0  0  0  0
  7  8  1  0  0  0  0
  7 27  1  0  0  0  0
  8 30  2  0  0  0  0
  9 13  1  0  0  0  0
  9 15  1  0  0  0  0
 10 13  2  0  0  0  0
 10 28  1  0  0  0  0
 11 14  1  0  0  0  0
 11 25  1  0  0  0  0
 12 26  1  0  0  0  0
 12 29  1  0  0  0  0
 14 16  1  0  0  0  0
 15 28  2  0  0  0  0
 16 28  1  0  0  0  0
 17 19  1  0  0  0  0
 17 24  2  0  0  0  0
 18 20  2  0  0  0  0
 18 24  1  0  0  0  0
 19 27  2  0  0  0  0
 20 27  1  0  0  0  0
 21 22  1  0  0  0  0
 21 29  2  0  0  0  0
 22 31  2  0  0  0  0
 23 31  1  0  0  0  0
 23 32  2  0  0  0  0
 25 31  1  0  0  0  0
 26 30  1  0  0  0  0
 29 32  1  0  0  0  0
 30 32  1  0  0  0  0
  6 33  1  0  0  0  0
  6 34  1  0  0  0  0
  7 35  1  0  0  0  0
  9 36  1  0  0  0  0
 11 37  1  0  0  0  0
 12 38  1  0  0  0  0
 13 39  1  0  0  0  0
 14 40  1  0  0  0  0
 14 41  1  0  0  0  0
 15 42  1  0  0  0  0
 16 43  1  0  0  0  0
 16 44  1  0  0  0  0
 17 45  1  0  0  0  0
 18 46  1  0  0  0  0
 19 47  1  0  0  0  0
 20 48  1  0  0  0  0
 21 49  1  0  0  0  0
 22 50  1  0  0  0  0
 23 51  1  0  0  0  0
M  END
$$$$
