1QK_A_302
          05071912473D 1   1.00000     0.00000     0
            
 57 60  0  0  0  0            999 V2000
    5.5076   22.5590    5.9450 O   0  5  0  0  0  0  0  0  0  0  0  0
   -1.2719   27.9978   10.7789 O   0  0  0  0  0  0  0  0  0  0  0  0
    1.9023   30.0977    6.5751 N   0  0  0  0  0  0  0  0  0  0  0  0
    4.1564   28.1612    6.8101 N   0  0  0  0  0  0  0  0  0  0  0  0
    0.2563   27.5792    8.6105 N   0  0  0  0  0  0  0  0  0  0  0  0
    5.3911   23.7391    5.5940 N   0  3  0  0  0  0  0  0  0  0  0  0
    1.8429   28.8887    7.2608 N   0  0  0  0  0  0  0  0  0  0  0  0
    0.8890   25.4710    9.5648 N   0  0  0  0  0  0  0  0  0  0  0  0
   -1.6106   31.0788    9.1861 C   0  0  0  0  0  0  0  0  0  0  0  0
   -0.5629   27.1093   11.6327 C   0  0  0  0  0  0  0  0  0  0  0  0
    0.6746   30.7125    6.7306 C   0  0  0  0  0  0  0  0  0  0  0  0
    5.2721   27.3366    7.1234 C   0  0  0  0  0  0  0  0  0  0  0  0
    5.2086   24.0631    4.1563 C   0  0  0  0  0  0  0  0  0  0  0  0
    1.9127   24.5861   10.1133 C   0  0  0  0  0  0  0  0  0  0  0  0
    5.4181   24.8039    6.6077 C   0  0  0  0  0  0  0  0  0  0  0  0
   -1.5738   30.1900    7.9384 C   0  0  0  0  0  0  0  0  0  0  0  0
    1.5454   23.1477    9.8837 C   0  0  0  0  0  0  0  0  0  0  0  0
    5.0594   25.4518    3.7165 C   0  0  0  0  0  0  0  0  0  0  0  0
    0.1390   22.8401   10.1657 C   0  0  0  0  0  0  0  0  0  0  0  0
   -0.8176   25.6560   11.3150 C   0  0  0  0  0  0  0  0  0  0  0  0
   -0.7456   23.7280    9.4122 C   0  0  0  0  0  0  0  0  0  0  0  0
    5.0956   26.5186    4.7204 C   0  0  0  0  0  0  0  0  0  0  0  0
    2.5894   26.7244    8.2035 C   0  0  0  0  0  0  0  0  0  0  0  0
    2.8815   27.8777    7.4370 C   0  0  0  0  0  0  0  0  0  0  0  0
    1.2743   26.6102    8.7958 C   0  0  0  0  0  0  0  0  0  0  0  0
    0.6141   28.7732    7.8405 C   0  0  0  0  0  0  0  0  0  0  0  0
   -0.4844   25.0849    9.9612 C   0  0  2  0  0  0  0  0  0  0  0  0
    5.2805   26.1844    6.1392 C   0  0  0  0  0  0  0  0  0  0  0  0
   -0.1338   29.8880    7.4896 C   0  0  0  0  0  0  0  0  0  0  0  0
   -1.0654   28.9421   11.0350 H   0  0  0  0  0  0  0  0  0  0  0  0
    4.2503   28.9228    6.1689 H   0  0  0  0  0  0  0  0  0  0  0  0
   -2.5611   31.2513    9.4446 H   0  0  0  0  0  0  0  0  0  0  0  0
   -1.1391   30.6177    9.9378 H   0  0  0  0  0  0  0  0  0  0  0  0
   -1.1556   31.9475    8.9901 H   0  0  0  0  0  0  0  0  0  0  0  0
   -0.8434   27.2829   12.5768 H   0  0  0  0  0  0  0  0  0  0  0  0
    0.4162   27.2893   11.5375 H   0  0  0  0  0  0  0  0  0  0  0  0
    0.4152   31.6031    6.3571 H   0  0  0  0  0  0  0  0  0  0  0  0
    5.1867   26.9874    8.0565 H   0  0  0  0  0  0  0  0  0  0  0  0
    6.1187   27.8622    7.0403 H   0  0  0  0  0  0  0  0  0  0  0  0
    5.1874   23.3253    3.4816 H   0  0  0  0  0  0  0  0  0  0  0  0
    1.9975   24.7509   11.0960 H   0  0  0  0  0  0  0  0  0  0  0  0
    2.7866   24.7776    9.6666 H   0  0  0  0  0  0  0  0  0  0  0  0
    5.5264   24.5935    7.5793 H   0  0  0  0  0  0  0  0  0  0  0  0
   -2.0527   30.6569    7.1949 H   0  0  0  0  0  0  0  0  0  0  0  0
   -2.0362   29.3272    8.1426 H   0  0  0  0  0  0  0  0  0  0  0  0
    2.1168   22.5788   10.4752 H   0  0  0  0  0  0  0  0  0  0  0  0
    1.7306   22.9246    8.9267 H   0  0  0  0  0  0  0  0  0  0  0  0
    4.9350   25.6683    2.7482 H   0  0  0  0  0  0  0  0  0  0  0  0
   -0.0331   22.9580   11.1437 H   0  0  0  0  0  0  0  0  0  0  0  0
   -0.0482   21.8927    9.9062 H   0  0  0  0  0  0  0  0  0  0  0  0
   -1.7958   25.5022   11.4549 H   0  0  0  0  0  0  0  0  0  0  0  0
   -0.2976   25.1240   11.9832 H   0  0  0  0  0  0  0  0  0  0  0  0
   -1.7022   23.4711    9.5497 H   0  0  0  0  0  0  0  0  0  0  0  0
   -0.5287   23.6955    8.4366 H   0  0  0  0  0  0  0  0  0  0  0  0
    4.9945   27.4732    4.4401 H   0  0  0  0  0  0  0  0  0  0  0  0
    3.2741   26.0071    8.3323 H   0  0  0  0  0  0  0  0  0  0  0  0
   -1.0384   25.6581    9.3574 H   0  0  0  0  0  0  0  0  0  0  0  0
  1  6  1  0  0  0  0
  2 10  1  0  0  0  0
  3  7  1  0  0  0  0
  3 11  2  0  0  0  0
  4 12  1  0  0  0  0
  4 24  1  0  0  0  0
  5 25  2  0  0  0  0
  5 26  1  0  0  0  0
  6 13  2  0  0  0  0
  6 15  1  0  0  0  0
  7 24  1  0  0  0  0
  7 26  1  0  0  0  0
  8 14  1  0  0  0  0
  8 25  1  0  0  0  0
  8 27  1  0  0  0  0
  9 16  1  0  0  0  0
 10 20  1  0  0  0  0
 11 29  1  0  0  0  0
 12 28  1  0  0  0  0
 13 18  1  0  0  0  0
 14 17  1  0  0  0  0
 15 28  2  0  0  0  0
 16 29  1  0  0  0  0
 17 19  1  0  0  0  0
 18 22  2  0  0  0  0
 19 21  1  0  0  0  0
 20 27  1  0  0  0  0
 21 27  1  0  0  0  0
 22 28  1  0  0  0  0
 23 24  2  0  0  0  0
 23 25  1  0  0  0  0
 26 29  2  0  0  0  0
  2 30  1  0  0  0  0
  4 31  1  0  0  0  0
  9 32  1  0  0  0  0
  9 33  1  0  0  0  0
  9 34  1  0  0  0  0
 10 35  1  0  0  0  0
 10 36  1  0  0  0  0
 11 37  1  0  0  0  0
 12 38  1  0  0  0  0
 12 39  1  0  0  0  0
 13 40  1  0  0  0  0
 14 41  1  0  0  0  0
 14 42  1  0  0  0  0
 15 43  1  0  0  0  0
 16 44  1  0  0  0  0
 16 45  1  0  0  0  0
 17 46  1  0  0  0  0
 17 47  1  0  0  0  0
 18 48  1  0  0  0  0
 19 49  1  0  0  0  0
 19 50  1  0  0  0  0
 20 51  1  0  0  0  0
 20 52  1  0  0  0  0
 21 53  1  0  0  0  0
 21 54  1  0  0  0  0
 22 55  1  0  0  0  0
 23 56  1  0  0  0  0
 27 57  1  0  0  0  0
M  CHG  2   1  -1   6   1
M  END
$$$$
