1YG_A_301
          05071912473D 1   1.00000     0.00000     0
            
 50 52  0  0  0  0            999 V2000
   -2.0859   30.3000    7.9755 S   0  0  0  0  0  0  0  0  0  0  0  0
    0.2722   28.5242    7.4415 S   0  0  0  0  0  0  0  0  0  0  0  0
    2.3428   26.5566    7.6012 O   0  0  0  0  0  0  0  0  0  0  0  0
   -1.2670   27.9354   10.4718 O   0  0  0  0  0  0  0  0  0  0  0  0
    1.6779   30.4921    6.5154 N   0  0  0  0  0  0  0  0  0  0  0  0
   -3.4637   28.2991   10.1343 N   0  0  0  0  0  0  0  0  0  0  0  0
    2.8922   28.5163    6.5564 N   0  0  0  0  0  0  0  0  0  0  0  0
    5.2051   26.2185    7.9773 C   0  0  0  0  0  0  0  0  0  0  0  0
   -2.0469   24.2290   10.7369 C   0  0  0  0  0  0  0  0  0  0  0  0
   -0.6912   25.4607   12.4136 C   0  0  0  0  0  0  0  0  0  0  0  0
    0.0581   25.3395   10.0391 C   0  0  0  0  0  0  0  0  0  0  0  0
   -1.8733   30.2066    9.7594 C   0  0  0  0  0  0  0  0  0  0  0  0
    0.4829   31.0060    6.9435 C   0  0  0  0  0  0  0  0  0  0  0  0
   -3.2775   26.9831   10.4565 C   0  0  0  0  0  0  0  0  0  0  0  0
    4.5362   23.8399    3.5063 C   0  0  0  0  0  0  0  0  0  0  0  0
    4.2113   23.4507    4.7915 C   0  0  0  0  0  0  0  0  0  0  0  0
    4.8117   25.1668    3.2430 C   0  0  0  0  0  0  0  0  0  0  0  0
    4.1828   24.3856    5.8154 C   0  0  0  0  0  0  0  0  0  0  0  0
    4.7932   26.1008    4.2684 C   0  0  0  0  0  0  0  0  0  0  0  0
   -0.4197   30.1283    7.4504 C   0  0  0  0  0  0  0  0  0  0  0  0
    1.7102   29.2089    6.7413 C   0  0  0  0  0  0  0  0  0  0  0  0
    3.1530   27.2427    6.9844 C   0  0  0  0  0  0  0  0  0  0  0  0
   -2.2454   28.8326   10.1471 C   0  0  0  0  0  0  0  0  0  0  0  0
   -1.9263   26.7373   10.6551 C   0  0  0  0  0  0  0  0  0  0  0  0
    4.4965   25.7188    5.5700 C   0  0  0  0  0  0  0  0  0  0  0  0
    4.5677   26.7474    6.6919 C   0  0  2  0  0  0  0  0  0  0  0  0
   -1.1578   25.4513   10.9589 C   0  0  0  0  0  0  0  0  0  0  0  0
    3.6236   28.9892    6.0650 H   0  0  0  0  0  0  0  0  0  0  0  0
    6.1310   25.8952    7.7817 H   0  0  0  0  0  0  0  0  0  0  0  0
    5.2445   26.9519    8.6560 H   0  0  0  0  0  0  0  0  0  0  0  0
    4.6567   25.4626    8.3348 H   0  0  0  0  0  0  0  0  0  0  0  0
   -2.3590   24.2120    9.7869 H   0  0  0  0  0  0  0  0  0  0  0  0
   -1.5259   23.3980   10.9315 H   0  0  0  0  0  0  0  0  0  0  0  0
   -2.8380   24.2771   11.3467 H   0  0  0  0  0  0  0  0  0  0  0  0
   -0.1076   26.2573   12.5714 H   0  0  0  0  0  0  0  0  0  0  0  0
   -1.4863   25.5050   13.0185 H   0  0  0  0  0  0  0  0  0  0  0  0
   -0.1742   24.6259   12.6032 H   0  0  0  0  0  0  0  0  0  0  0  0
    0.6512   26.1335   10.1726 H   0  0  0  0  0  0  0  0  0  0  0  0
    0.5645   24.5049   10.2561 H   0  0  0  0  0  0  0  0  0  0  0  0
   -0.2460   25.3069    9.0871 H   0  0  0  0  0  0  0  0  0  0  0  0
   -2.4688   30.8685   10.2145 H   0  0  0  0  0  0  0  0  0  0  0  0
   -0.9215   30.3903   10.0051 H   0  0  0  0  0  0  0  0  0  0  0  0
    0.2842   31.9843    6.8852 H   0  0  0  0  0  0  0  0  0  0  0  0
   -4.0047   26.3014   10.5368 H   0  0  0  0  0  0  0  0  0  0  0  0
    4.5716   23.1637    2.7704 H   0  0  0  0  0  0  0  0  0  0  0  0
    3.9963   22.4932    4.9838 H   0  0  0  0  0  0  0  0  0  0  0  0
    5.0253   25.4556    2.3098 H   0  0  0  0  0  0  0  0  0  0  0  0
    3.9342   24.0984    6.7404 H   0  0  0  0  0  0  0  0  0  0  0  0
    4.9957   27.0594    4.0681 H   0  0  0  0  0  0  0  0  0  0  0  0
    5.1103   27.5235    6.3704 H   0  0  0  0  0  0  0  0  0  0  0  0
  1 12  1  0  0  0  0
  1 20  1  0  0  0  0
  2 20  1  0  0  0  0
  2 21  1  0  0  0  0
  3 22  2  0  0  0  0
  4 23  1  0  0  0  0
  4 24  1  0  0  0  0
  5 13  1  0  0  0  0
  5 21  2  0  0  0  0
  6 14  1  0  0  0  0
  6 23  2  0  0  0  0
  7 21  1  0  0  0  0
  7 22  1  0  0  0  0
  8 26  1  0  0  0  0
  9 27  1  0  0  0  0
 10 27  1  0  0  0  0
 11 27  1  0  0  0  0
 12 23  1  0  0  0  0
 13 20  2  0  0  0  0
 14 24  2  0  0  0  0
 15 16  2  0  0  0  0
 15 17  1  0  0  0  0
 16 18  1  0  0  0  0
 17 19  2  0  0  0  0
 18 25  2  0  0  0  0
 19 25  1  0  0  0  0
 22 26  1  0  0  0  0
 24 27  1  0  0  0  0
 25 26  1  0  0  0  0
  7 28  1  0  0  0  0
  8 29  1  0  0  0  0
  8 30  1  0  0  0  0
  8 31  1  0  0  0  0
  9 32  1  0  0  0  0
  9 33  1  0  0  0  0
  9 34  1  0  0  0  0
 10 35  1  0  0  0  0
 10 36  1  0  0  0  0
 10 37  1  0  0  0  0
 11 38  1  0  0  0  0
 11 39  1  0  0  0  0
 11 40  1  0  0  0  0
 12 41  1  0  0  0  0
 12 42  1  0  0  0  0
 13 43  1  0  0  0  0
 14 44  1  0  0  0  0
 15 45  1  0  0  0  0
 16 46  1  0  0  0  0
 17 47  1  0  0  0  0
 18 48  1  0  0  0  0
 19 49  1  0  0  0  0
 26 50  1  0  0  0  0
M  END
$$$$
