SZL_A_1299
          05071912473D 1   1.00000     0.00000     0
            
 17 18  0  0  0  0            999 V2000
   -0.1807   27.1471    8.2911 O   0  0  0  0  0  0  0  0  0  0  0  0
    1.4353   27.9401    6.7964 N   0  0  0  0  0  0  0  0  0  0  0  0
    1.4753   30.2222    6.2968 N   0  0  0  0  0  0  0  0  0  0  0  0
   -0.1888   31.5536    7.5247 N   0  0  0  0  0  0  0  0  0  0  0  0
   -1.0468   29.8513    8.5513 N   0  0  0  0  0  0  0  0  0  0  0  0
    0.3523   25.8840    8.0877 C   0  0  0  0  0  0  0  0  0  0  0  0
    1.9925   28.9951    6.0843 C   0  0  0  0  0  0  0  0  0  0  0  0
   -1.1272   31.1587    8.4070 C   0  0  0  0  0  0  0  0  0  0  0  0
    0.3978   28.1400    7.6021 C   0  0  0  0  0  0  0  0  0  0  0  0
    0.4582   30.4345    7.1652 C   0  0  0  0  0  0  0  0  0  0  0  0
   -0.0709   29.3808    7.8319 C   0  0  0  0  0  0  0  0  0  0  0  0
   -0.0119   32.4845    7.2052 H   0  0  0  0  0  0  0  0  0  0  0  0
   -0.1459   25.2185    8.6435 H   0  0  0  0  0  0  0  0  0  0  0  0
    0.2703   25.6392    7.1215 H   0  0  0  0  0  0  0  0  0  0  0  0
    1.3169   25.8828    8.3512 H   0  0  0  0  0  0  0  0  0  0  0  0
    2.7450   28.8507    5.4417 H   0  0  0  0  0  0  0  0  0  0  0  0
   -1.7768   31.7581    8.8747 H   0  0  0  0  0  0  0  0  0  0  0  0
  1  6  1  0  0  0  0
  1  9  1  0  0  0  0
  2  7  2  0  0  0  0
  2  9  1  0  0  0  0
  3  7  1  0  0  0  0
  3 10  2  0  0  0  0
  4  8  1  0  0  0  0
  4 10  1  0  0  0  0
  5  8  2  0  0  0  0
  5 11  1  0  0  0  0
  9 11  2  0  0  0  0
 10 11  1  0  0  0  0
  4 12  1  0  0  0  0
  6 13  1  0  0  0  0
  6 14  1  0  0  0  0
  6 15  1  0  0  0  0
  7 16  1  0  0  0  0
  8 17  1  0  0  0  0
M  END
$$$$
