ZXC_A_1299
          05071912473D 1   1.00000     0.00000     0
            
 24 26  0  0  0  0            999 V2000
   -1.9258   23.8622    8.9720 S   0  0  0  0  0  0  0  0  0  0  0  0
   -1.6293   26.6898    8.4459 O   0  0  0  0  0  0  0  0  0  0  0  0
    1.7483   30.1516    6.2849 N   0  0  0  0  0  0  0  0  0  0  0  0
    0.0292   31.3135    7.5038 N   0  0  0  0  0  0  0  0  0  0  0  0
    1.9713   27.8211    6.7758 N   0  0  0  0  0  0  0  0  0  0  0  0
   -0.7351   29.5248    8.5994 N   0  0  0  0  0  0  0  0  0  0  0  0
    0.6618   26.7138    8.2611 N   0  0  0  0  0  0  0  0  0  0  0  0
   -1.1277   22.4586    9.4363 C   0  0  0  0  0  0  0  0  0  0  0  0
    2.3659   28.9096    6.0390 C   0  0  0  0  0  0  0  0  0  0  0  0
   -0.9019   30.8400    8.4400 C   0  0  0  0  0  0  0  0  0  0  0  0
    0.1701   22.7536    9.5718 C   0  0  0  0  0  0  0  0  0  0  0  0
    0.5295   24.0676    9.3387 C   0  0  0  0  0  0  0  0  0  0  0  0
   -0.5045   24.8528    9.0391 C   0  0  0  0  0  0  0  0  0  0  0  0
   -0.5422   26.1584    8.6202 C   0  0  0  0  0  0  0  0  0  0  0  0
    0.7162   30.2501    7.1045 C   0  0  0  0  0  0  0  0  0  0  0  0
    0.9266   27.9359    7.6219 C   0  0  0  0  0  0  0  0  0  0  0  0
    0.2733   29.1186    7.8043 C   0  0  0  0  0  0  0  0  0  0  0  0
    0.1506   32.2583    7.1996 H   0  0  0  0  0  0  0  0  0  0  0  0
    1.4681   26.1677    8.4883 H   0  0  0  0  0  0  0  0  0  0  0  0
   -1.5475   21.5632    9.5848 H   0  0  0  0  0  0  0  0  0  0  0  0
    3.0774   28.8229    5.3417 H   0  0  0  0  0  0  0  0  0  0  0  0
   -1.5829   31.3989    8.9131 H   0  0  0  0  0  0  0  0  0  0  0  0
    0.8440   22.0605    9.8279 H   0  0  0  0  0  0  0  0  0  0  0  0
    1.4724   24.3966    9.3898 H   0  0  0  0  0  0  0  0  0  0  0  0
  1  8  1  0  0  0  0
  1 13  1  0  0  0  0
  2 14  2  0  0  0  0
  3  9  2  0  0  0  0
  3 15  1  0  0  0  0
  4 10  1  0  0  0  0
  4 15  1  0  0  0  0
  5  9  1  0  0  0  0
  5 16  2  0  0  0  0
  6 10  2  0  0  0  0
  6 17  1  0  0  0  0
  7 14  1  0  0  0  0
  7 16  1  0  0  0  0
  8 11  2  0  0  0  0
 11 12  1  0  0  0  0
 12 13  2  0  0  0  0
 13 14  1  0  0  0  0
 15 17  2  0  0  0  0
 16 17  1  0  0  0  0
  4 18  1  0  0  0  0
  7 19  1  0  0  0  0
  8 20  1  0  0  0  0
  9 21  1  0  0  0  0
 10 22  1  0  0  0  0
 11 23  1  0  0  0  0
 12 24  1  0  0  0  0
M  END
$$$$
