RJI_A_1299
          05071912473D 1   1.00000     0.00000     0
            
 27 28  0  0  0  0            999 V2000
    3.4377   26.5852    7.0289 O   0  0  0  0  0  0  0  0  0  0  0  0
   -1.1921   29.9743    9.3021 O   0  0  0  0  0  0  0  0  0  0  0  0
    1.6585   30.6063    6.3248 O   0  0  0  0  0  0  0  0  0  0  0  0
   -0.4692   27.5103    9.1284 O   0  0  0  0  0  0  0  0  0  0  0  0
   -0.3191   31.4226    7.6820 N   0  0  0  0  0  0  0  0  0  0  0  0
    2.4896   28.6041    6.6713 N   0  0  0  0  0  0  0  0  0  0  0  0
    1.4977   27.0128    8.1394 N   0  0  0  0  0  0  0  0  0  0  0  0
    1.5528   23.2400    9.9963 C   0  0  0  0  0  0  0  0  0  0  0  0
    0.7745   23.4072    8.8361 C   0  0  0  0  0  0  0  0  0  0  0  0
    2.2933   24.3169   10.5167 C   0  0  0  0  0  0  0  0  0  0  0  0
    0.7350   24.6565    8.1915 C   0  0  0  0  0  0  0  0  0  0  0  0
    2.2604   25.5461    9.8659 C   0  0  0  0  0  0  0  0  0  0  0  0
    2.5193   27.3690    7.3209 C   0  0  0  0  0  0  0  0  0  0  0  0
   -0.4084   30.2102    8.3236 C   0  0  0  0  0  0  0  0  0  0  0  0
    1.5499   29.5541    6.9512 C   0  0  0  0  0  0  0  0  0  0  0  0
    0.4848   27.9006    8.4112 C   0  0  0  0  0  0  0  0  0  0  0  0
    1.4892   25.7470    8.7098 C   0  0  0  0  0  0  0  0  0  0  0  0
    0.3627   29.1753    7.6748 C   0  0  1  0  0  0  0  0  0  0  0  0
    0.3179   31.5395    6.9201 H   0  0  0  0  0  0  0  0  0  0  0  0
   -0.8912   32.1878    7.9772 H   0  0  0  0  0  0  0  0  0  0  0  0
    3.1811   28.8001    5.9761 H   0  0  0  0  0  0  0  0  0  0  0  0
    1.5797   22.3509   10.4533 H   0  0  0  0  0  0  0  0  0  0  0  0
    0.2498   22.6384    8.4703 H   0  0  0  0  0  0  0  0  0  0  0  0
    2.8384   24.2000   11.3469 H   0  0  0  0  0  0  0  0  0  0  0  0
    0.1780   24.7786    7.3700 H   0  0  0  0  0  0  0  0  0  0  0  0
    2.7993   26.3055   10.2305 H   0  0  0  0  0  0  0  0  0  0  0  0
   -0.2483   28.9135    6.9277 H   0  0  0  0  0  0  0  0  0  0  0  0
  1 13  2  0  0  0  0
  2 14  2  0  0  0  0
  3 15  2  0  0  0  0
  4 16  2  0  0  0  0
  5 14  1  0  0  0  0
  6 13  1  0  0  0  0
  6 15  1  0  0  0  0
  7 13  1  0  0  0  0
  7 16  1  0  0  0  0
  7 17  1  0  0  0  0
  8  9  2  0  0  0  0
  8 10  1  0  0  0  0
  9 11  1  0  0  0  0
 10 12  2  0  0  0  0
 11 17  2  0  0  0  0
 12 17  1  0  0  0  0
 14 18  1  0  0  0  0
 15 18  1  0  0  0  0
 16 18  1  0  0  0  0
  5 19  1  0  0  0  0
  5 20  1  0  0  0  0
  6 21  1  0  0  0  0
  8 22  1  0  0  0  0
  9 23  1  0  0  0  0
 10 24  1  0  0  0  0
 11 25  1  0  0  0  0
 12 26  1  0  0  0  0
 18 27  1  0  0  0  0
M  END
$$$$
