R0N_A_1001
          05071912473D 1   1.00000     0.00000     0
            
 50 52  0  0  0  0            999 V2000
    6.4891   23.6609    7.1781 S   0  0  0  0  0  0  0  0  0  0  0  0
   -1.5658   31.7994    8.0226 F   0  0  0  0  0  0  0  0  0  0  0  0
   -2.4545   29.7976    7.9073 F   0  0  0  0  0  0  0  0  0  0  0  0
   -1.6139   30.3026    9.7741 F   0  0  0  0  0  0  0  0  0  0  0  0
    7.5554   24.0300    8.1380 O   0  0  0  0  0  0  0  0  0  0  0  0
   -1.7959   26.3436   10.8561 O   0  0  0  0  0  0  0  0  0  0  0  0
   -0.4606   27.7903    9.0753 O   0  0  0  0  0  0  0  0  0  0  0  0
    5.6130   22.5515    7.9027 N   0  0  0  0  0  0  0  0  0  0  0  0
    1.7964   30.2148    6.6614 N   0  0  0  0  0  0  0  0  0  0  0  0
    1.4796   28.2310    7.8011 N   0  0  0  0  0  0  0  0  0  0  0  0
    3.3979   28.5529    6.5352 N   0  0  0  0  0  0  0  0  0  0  0  0
   -0.2384   27.8718   11.9421 C   0  0  0  0  0  0  0  0  0  0  0  0
   -0.0208   25.5189    8.9237 C   0  0  0  0  0  0  0  0  0  0  0  0
    0.6640   30.6953    7.1265 C   0  0  0  0  0  0  0  0  0  0  0  0
    6.4676   22.3847    4.5561 C   0  0  0  0  0  0  0  0  0  0  0  0
    7.0567   21.4753    5.6388 C   0  0  0  0  0  0  0  0  0  0  0  0
    5.9127   26.0174    6.0421 C   0  0  0  0  0  0  0  0  0  0  0  0
    4.4543   25.2885    7.8253 C   0  0  0  0  0  0  0  0  0  0  0  0
    5.1308   27.1466    5.9272 C   0  0  0  0  0  0  0  0  0  0  0  0
    3.6900   26.4388    7.7209 C   0  0  0  0  0  0  0  0  0  0  0  0
    7.3132   22.9757    5.7178 C   0  0  0  0  0  0  0  0  0  0  0  0
    5.5455   25.0925    6.9898 C   0  0  0  0  0  0  0  0  0  0  0  0
   -0.4157   26.6330   11.1008 C   0  0  2  0  0  0  0  0  0  0  0  0
    0.2832   28.6421    8.2809 C   0  0  0  0  0  0  0  0  0  0  0  0
    2.2486   28.9982    7.0393 C   0  0  0  0  0  0  0  0  0  0  0  0
    0.2630   26.7971    9.7107 C   0  0  2  0  0  0  0  0  0  0  0  0
    4.0194   27.3874    6.7481 C   0  0  0  0  0  0  0  0  0  0  0  0
   -0.1442   29.9186    7.9609 C   0  0  0  0  0  0  0  0  0  0  0  0
   -1.4720   30.4734    8.4385 C   0  0  0  0  0  0  0  0  0  0  0  0
   -1.8693   25.5179   10.2968 H   0  0  0  0  0  0  0  0  0  0  0  0
    4.8257   22.1511    7.4339 H   0  0  0  0  0  0  0  0  0  0  0  0
    3.8624   29.1786    5.9085 H   0  0  0  0  0  0  0  0  0  0  0  0
    0.7366   28.0380   12.0893 H   0  0  0  0  0  0  0  0  0  0  0  0
   -0.6428   28.6555   11.4708 H   0  0  0  0  0  0  0  0  0  0  0  0
   -0.6915   27.7432   12.8243 H   0  0  0  0  0  0  0  0  0  0  0  0
    0.4775   24.7561    9.3358 H   0  0  0  0  0  0  0  0  0  0  0  0
   -1.0018   25.3259    8.9438 H   0  0  0  0  0  0  0  0  0  0  0  0
    0.2761   25.6379    7.9763 H   0  0  0  0  0  0  0  0  0  0  0  0
    0.3795   31.6221    6.8816 H   0  0  0  0  0  0  0  0  0  0  0  0
    5.4817   22.5478    4.5194 H   0  0  0  0  0  0  0  0  0  0  0  0
    6.8368   22.3631    3.6270 H   0  0  0  0  0  0  0  0  0  0  0  0
    7.8067   20.8539    5.4122 H   0  0  0  0  0  0  0  0  0  0  0  0
    6.4516   21.0386    6.3046 H   0  0  0  0  0  0  0  0  0  0  0  0
    6.7137   25.8771    5.4601 H   0  0  0  0  0  0  0  0  0  0  0  0
    4.2188   24.5953    8.5065 H   0  0  0  0  0  0  0  0  0  0  0  0
    5.3658   27.8228    5.2291 H   0  0  0  0  0  0  0  0  0  0  0  0
    2.9134   26.5887    8.3328 H   0  0  0  0  0  0  0  0  0  0  0  0
    8.2337   23.3034    5.5049 H   0  0  0  0  0  0  0  0  0  0  0  0
   -0.0005   25.8566   11.5750 H   0  0  0  0  0  0  0  0  0  0  0  0
    1.2387   27.0064    9.7756 H   0  0  0  0  0  0  0  0  0  0  0  0
  1  5  2  0  0  0  0
  1  8  2  0  0  0  0
  1 21  1  0  0  0  0
  1 22  1  0  0  0  0
  2 29  1  0  0  0  0
  3 29  1  0  0  0  0
  4 29  1  0  0  0  0
  6 23  1  0  0  0  0
  7 24  1  0  0  0  0
  7 26  1  0  0  0  0
  9 14  2  0  0  0  0
  9 25  1  0  0  0  0
 10 24  1  0  0  0  0
 10 25  2  0  0  0  0
 11 25  1  0  0  0  0
 11 27  1  0  0  0  0
 12 23  1  0  0  0  0
 13 26  1  0  0  0  0
 14 28  1  0  0  0  0
 15 16  1  0  0  0  0
 15 21  1  0  0  0  0
 16 21  1  0  0  0  0
 17 19  1  0  0  0  0
 17 22  2  0  0  0  0
 18 20  2  0  0  0  0
 18 22  1  0  0  0  0
 19 27  2  0  0  0  0
 20 27  1  0  0  0  0
 23 26  1  0  0  0  0
 24 28  2  0  0  0  0
 28 29  1  0  0  0  0
  6 30  1  0  0  0  0
  8 31  1  0  0  0  0
 11 32  1  0  0  0  0
 12 33  1  0  0  0  0
 12 34  1  0  0  0  0
 12 35  1  0  0  0  0
 13 36  1  0  0  0  0
 13 37  1  0  0  0  0
 13 38  1  0  0  0  0
 14 39  1  0  0  0  0
 15 40  1  0  0  0  0
 15 41  1  0  0  0  0
 16 42  1  0  0  0  0
 16 43  1  0  0  0  0
 17 44  1  0  0  0  0
 18 45  1  0  0  0  0
 19 46  1  0  0  0  0
 20 47  1  0  0  0  0
 21 48  1  0  0  0  0
 23 49  1  0  0  0  0
 26 50  1  0  0  0  0
M  END
$$$$
