6AE_A_1001
          05071912473D 1   1.00000     0.00000     0
            
 42 43  0  0  0  0            999 V2000
    6.3983   23.8330    7.5157 S   0  0  0  0  0  0  0  0  0  0  0  0
    7.4675   24.3877    8.3411 O   0  0  0  0  0  0  0  0  0  0  0  0
    6.9327   23.2930    6.1950 O   0  0  0  0  0  0  0  0  0  0  0  0
   -2.1851   26.5221   10.7075 O   0  0  0  0  0  0  0  0  0  0  0  0
    5.6022   22.6451    8.2558 N   0  0  0  0  0  0  0  0  0  0  0  0
    1.8058   30.4305    6.5590 N   0  0  0  0  0  0  0  0  0  0  0  0
    1.2658   28.4380    7.6624 N   0  0  0  0  0  0  0  0  0  0  0  0
    3.1918   28.5802    6.3222 N   0  0  0  0  0  0  0  0  0  0  0  0
   -0.5761   28.1726    9.0265 N   0  0  0  0  0  0  0  0  0  0  0  0
   -0.4833   27.8623   11.7074 C   0  0  0  0  0  0  0  0  0  0  0  0
   -0.3780   25.6954    8.7416 C   0  0  0  0  0  0  0  0  0  0  0  0
    0.6774   31.0167    7.0649 C   0  0  0  0  0  0  0  0  0  0  0  0
    4.2346   25.4928    7.8833 C   0  0  0  0  0  0  0  0  0  0  0  0
    5.8022   26.0518    6.1377 C   0  0  0  0  0  0  0  0  0  0  0  0
   -0.1619   30.2953    7.9207 C   0  0  0  0  0  0  0  0  0  0  0  0
    3.4201   26.5748    7.6217 C   0  0  0  0  0  0  0  0  0  0  0  0
    5.0117   27.1741    5.9234 C   0  0  0  0  0  0  0  0  0  0  0  0
    5.3951   25.2202    7.1648 C   0  0  0  0  0  0  0  0  0  0  0  0
    2.1072   29.1514    6.8819 C   0  0  0  0  0  0  0  0  0  0  0  0
   -0.7372   26.6521   10.9653 C   0  0  2  0  0  0  0  0  0  0  0  0
    0.1805   28.9571    8.2198 C   0  0  0  0  0  0  0  0  0  0  0  0
    3.8095   27.4349    6.5985 C   0  0  0  0  0  0  0  0  0  0  0  0
   -0.0371   26.9137    9.5978 C   0  0  2  0  0  0  0  0  0  0  0  0
   -2.3580   25.6822   10.1929 H   0  0  0  0  0  0  0  0  0  0  0  0
    4.8832   22.2995    7.6528 H   0  0  0  0  0  0  0  0  0  0  0  0
    6.2373   21.9046    8.4756 H   0  0  0  0  0  0  0  0  0  0  0  0
    3.6001   29.1044    5.5749 H   0  0  0  0  0  0  0  0  0  0  0  0
   -1.5136   28.4471    9.2400 H   0  0  0  0  0  0  0  0  0  0  0  0
    0.4979   27.9475   11.8805 H   0  0  0  0  0  0  0  0  0  0  0  0
   -0.7981   28.6501   11.1781 H   0  0  0  0  0  0  0  0  0  0  0  0
   -0.9736   27.8283   12.5783 H   0  0  0  0  0  0  0  0  0  0  0  0
    0.0041   24.8736    9.1641 H   0  0  0  0  0  0  0  0  0  0  0  0
   -1.3715   25.6038    8.6729 H   0  0  0  0  0  0  0  0  0  0  0  0
    0.0101   25.8115    7.8273 H   0  0  0  0  0  0  0  0  0  0  0  0
    0.4529   31.9606    6.8229 H   0  0  0  0  0  0  0  0  0  0  0  0
    3.9787   24.8737    8.6257 H   0  0  0  0  0  0  0  0  0  0  0  0
    6.6129   25.8581    5.5851 H   0  0  0  0  0  0  0  0  0  0  0  0
   -0.9818   30.7151    8.3100 H   0  0  0  0  0  0  0  0  0  0  0  0
    2.5836   26.7351    8.1458 H   0  0  0  0  0  0  0  0  0  0  0  0
    5.3196   27.8397    5.2435 H   0  0  0  0  0  0  0  0  0  0  0  0
   -0.3661   25.8462   11.4267 H   0  0  0  0  0  0  0  0  0  0  0  0
    0.9525   26.9846    9.7223 H   0  0  0  0  0  0  0  0  0  0  0  0
  1  2  2  0  0  0  0
  1  3  2  0  0  0  0
  1  5  1  0  0  0  0
  1 18  1  0  0  0  0
  4 20  1  0  0  0  0
  6 12  2  0  0  0  0
  6 19  1  0  0  0  0
  7 19  2  0  0  0  0
  7 21  1  0  0  0  0
  8 19  1  0  0  0  0
  8 22  1  0  0  0  0
  9 21  1  0  0  0  0
  9 23  1  0  0  0  0
 10 20  1  0  0  0  0
 11 23  1  0  0  0  0
 12 15  1  0  0  0  0
 13 16  1  0  0  0  0
 13 18  2  0  0  0  0
 14 17  2  0  0  0  0
 14 18  1  0  0  0  0
 15 21  2  0  0  0  0
 16 22  2  0  0  0  0
 17 22  1  0  0  0  0
 20 23  1  0  0  0  0
  4 24  1  0  0  0  0
  5 25  1  0  0  0  0
  5 26  1  0  0  0  0
  8 27  1  0  0  0  0
  9 28  1  0  0  0  0
 10 29  1  0  0  0  0
 10 30  1  0  0  0  0
 10 31  1  0  0  0  0
 11 32  1  0  0  0  0
 11 33  1  0  0  0  0
 11 34  1  0  0  0  0
 12 35  1  0  0  0  0
 13 36  1  0  0  0  0
 14 37  1  0  0  0  0
 15 38  1  0  0  0  0
 16 39  1  0  0  0  0
 17 40  1  0  0  0  0
 20 41  1  0  0  0  0
 23 42  1  0  0  0  0
M  END
$$$$
