I74_A_302
          05071912473D 1   1.00000     0.00000     0
            
 59 62  0  0  0  0            999 V2000
    0.0795   23.8406   11.5278 O   0  0  0  0  0  0  0  0  0  0  0  0
    1.8445   30.1520    6.5959 N   0  0  0  0  0  0  0  0  0  0  0  0
   -1.7954   26.4716   13.1916 N   0  0  0  0  0  0  0  0  0  0  0  0
    0.3494   25.2834    8.6850 N   0  0  0  0  0  0  0  0  0  0  0  0
    3.6525   27.9851    6.4229 N   0  0  0  0  0  0  0  0  0  0  0  0
   -0.0075   27.5681    8.1770 N   0  0  0  0  0  0  0  0  0  0  0  0
    1.5869   28.8621    7.0391 N   0  0  0  0  0  0  0  0  0  0  0  0
   -2.6891   29.5606    7.7720 C   0  0  0  0  0  0  0  0  0  0  0  0
   -1.4814   30.6336    9.6093 C   0  0  0  0  0  0  0  0  0  0  0  0
   -1.7152   27.5033   12.1798 C   0  0  0  0  0  0  0  0  0  0  0  0
    0.7464   30.8905    6.9326 C   0  0  0  0  0  0  0  0  0  0  0  0
   -0.9020   25.3068   13.1287 C   0  0  0  0  0  0  0  0  0  0  0  0
    4.7892   27.1416    6.7991 C   0  0  0  0  0  0  0  0  0  0  0  0
   -0.9820   25.0969    9.2326 C   0  0  0  0  0  0  0  0  0  0  0  0
    5.1303   24.1337    3.7730 C   0  0  0  0  0  0  0  0  0  0  0  0
    4.9452   23.7830    5.1295 C   0  0  0  0  0  0  0  0  0  0  0  0
    5.1906   25.4824    3.3900 C   0  0  0  0  0  0  0  0  0  0  0  0
   -1.7168   27.0022   10.7303 C   0  0  0  0  0  0  0  0  0  0  0  0
    4.8404   24.7481    6.1167 C   0  0  0  0  0  0  0  0  0  0  0  0
    5.0965   26.4457    4.3934 C   0  0  0  0  0  0  0  0  0  0  0  0
    2.0709   26.5659    7.5433 C   0  0  0  0  0  0  0  0  0  0  0  0
    0.8020   26.4753    8.1500 C   0  0  0  0  0  0  0  0  0  0  0  0
    2.4703   27.8156    7.0049 C   0  0  0  0  0  0  0  0  0  0  0  0
    0.4291   28.7399    7.6480 C   0  0  0  0  0  0  0  0  0  0  0  0
   -1.0350   24.6788   11.7412 C   0  0  1  0  0  0  0  0  0  0  0  0
   -1.4980   30.4886    8.0631 C   0  0  0  0  0  0  0  0  0  0  0  0
    4.9156   26.0819    5.7411 C   0  0  0  0  0  0  0  0  0  0  0  0
   -0.8890   25.6978   10.6257 C   0  0  1  0  0  0  0  0  0  0  0  0
   -0.1562   30.0125    7.5560 C   0  0  0  0  0  0  0  0  0  0  0  0
    0.0114   23.4191   10.6235 H   0  0  0  0  0  0  0  0  0  0  0  0
   -2.7309   26.1189   13.1700 H   0  0  0  0  0  0  0  0  0  0  0  0
    0.9760   24.5041    8.6953 H   0  0  0  0  0  0  0  0  0  0  0  0
    3.7667   28.6919    5.7248 H   0  0  0  0  0  0  0  0  0  0  0  0
   -2.7667   29.4172    6.7854 H   0  0  0  0  0  0  0  0  0  0  0  0
   -2.5455   28.6814    8.2263 H   0  0  0  0  0  0  0  0  0  0  0  0
   -3.5298   29.9796    8.1151 H   0  0  0  0  0  0  0  0  0  0  0  0
   -0.7257   31.2299    9.8801 H   0  0  0  0  0  0  0  0  0  0  0  0
   -2.3462   31.0313    9.9160 H   0  0  0  0  0  0  0  0  0  0  0  0
   -1.3618   29.7331   10.0273 H   0  0  0  0  0  0  0  0  0  0  0  0
   -0.8698   28.0163   12.3283 H   0  0  0  0  0  0  0  0  0  0  0  0
   -2.4997   28.1123   12.2969 H   0  0  0  0  0  0  0  0  0  0  0  0
    0.6108   31.8674    6.7673 H   0  0  0  0  0  0  0  0  0  0  0  0
   -1.1630   24.6415   13.8281 H   0  0  0  0  0  0  0  0  0  0  0  0
    0.0431   25.5963   13.2802 H   0  0  0  0  0  0  0  0  0  0  0  0
    4.6240   26.7196    7.6905 H   0  0  0  0  0  0  0  0  0  0  0  0
    5.6251   27.6890    6.8391 H   0  0  0  0  0  0  0  0  0  0  0  0
   -1.2155   24.1256    9.2785 H   0  0  0  0  0  0  0  0  0  0  0  0
   -1.6642   25.5780    8.6820 H   0  0  0  0  0  0  0  0  0  0  0  0
    5.2188   23.4164    3.0819 H   0  0  0  0  0  0  0  0  0  0  0  0
    4.8888   22.8170    5.3818 H   0  0  0  0  0  0  0  0  0  0  0  0
    5.2974   25.7434    2.4306 H   0  0  0  0  0  0  0  0  0  0  0  0
   -1.3139   27.6996   10.1376 H   0  0  0  0  0  0  0  0  0  0  0  0
   -2.6573   26.8226   10.4421 H   0  0  0  0  0  0  0  0  0  0  0  0
    4.7138   24.4909    7.0748 H   0  0  0  0  0  0  0  0  0  0  0  0
    5.1587   27.4139    4.1510 H   0  0  0  0  0  0  0  0  0  0  0  0
    2.6739   25.7697    7.4937 H   0  0  0  0  0  0  0  0  0  0  0  0
   -1.8915   24.1698   11.6557 H   0  0  0  0  0  0  0  0  0  0  0  0
   -1.6888   31.3848    7.6625 H   0  0  0  0  0  0  0  0  0  0  0  0
    0.0603   26.0041   10.6970 H   0  0  0  0  0  0  0  0  0  0  0  0
  1 25  1  0  0  0  0
  2  7  1  0  0  0  0
  2 11  2  0  0  0  0
  3 10  1  0  0  0  0
  3 12  1  0  0  0  0
  4 14  1  0  0  0  0
  4 22  1  0  0  0  0
  5 13  1  0  0  0  0
  5 23  1  0  0  0  0
  6 22  2  0  0  0  0
  6 24  1  0  0  0  0
  7 23  1  0  0  0  0
  7 24  1  0  0  0  0
  8 26  1  0  0  0  0
  9 26  1  0  0  0  0
 10 18  1  0  0  0  0
 11 29  1  0  0  0  0
 12 25  1  0  0  0  0
 13 27  1  0  0  0  0
 14 28  1  0  0  0  0
 15 16  2  0  0  0  0
 15 17  1  0  0  0  0
 16 19  1  0  0  0  0
 17 20  2  0  0  0  0
 18 28  1  0  0  0  0
 19 27  2  0  0  0  0
 20 27  1  0  0  0  0
 21 22  1  0  0  0  0
 21 23  2  0  0  0  0
 24 29  2  0  0  0  0
 25 28  1  0  0  0  0
 26 29  1  0  0  0  0
  1 30  1  0  0  0  0
  3 31  1  0  0  0  0
  4 32  1  0  0  0  0
  5 33  1  0  0  0  0
  8 34  1  0  0  0  0
  8 35  1  0  0  0  0
  8 36  1  0  0  0  0
  9 37  1  0  0  0  0
  9 38  1  0  0  0  0
  9 39  1  0  0  0  0
 10 40  1  0  0  0  0
 10 41  1  0  0  0  0
 11 42  1  0  0  0  0
 12 43  1  0  0  0  0
 12 44  1  0  0  0  0
 13 45  1  0  0  0  0
 13 46  1  0  0  0  0
 14 47  1  0  0  0  0
 14 48  1  0  0  0  0
 15 49  1  0  0  0  0
 16 50  1  0  0  0  0
 17 51  1  0  0  0  0
 18 52  1  0  0  0  0
 18 53  1  0  0  0  0
 19 54  1  0  0  0  0
 20 55  1  0  0  0  0
 21 56  1  0  0  0  0
 25 57  1  0  0  0  0
 26 58  1  0  0  0  0
 28 59  1  0  0  0  0
M  END
$$$$
