I73_A_301
          05071912473D 1   1.00000     0.00000     0
            
 59 62  0  0  0  0            999 V2000
   -0.8483   25.1389   13.4423 O   0  0  0  0  0  0  0  0  0  0  0  0
    1.6555   30.3600    6.7253 N   0  0  0  0  0  0  0  0  0  0  0  0
   -3.1639   26.4692   12.3005 N   0  0  0  0  0  0  0  0  0  0  0  0
    0.2432   25.4636    9.0216 N   0  0  0  0  0  0  0  0  0  0  0  0
    3.5662   28.1162    6.6815 N   0  0  0  0  0  0  0  0  0  0  0  0
   -0.1860   27.7196    8.4248 N   0  0  0  0  0  0  0  0  0  0  0  0
    1.4815   29.0483    7.2419 N   0  0  0  0  0  0  0  0  0  0  0  0
   -1.7498   30.8804    9.6227 C   0  0  0  0  0  0  0  0  0  0  0  0
   -2.9300   29.6711    7.6101 C   0  0  0  0  0  0  0  0  0  0  0  0
   -3.6864   25.4827   11.3567 C   0  0  0  0  0  0  0  0  0  0  0  0
    0.4893   31.0372    7.0247 C   0  0  0  0  0  0  0  0  0  0  0  0
   -1.7781   26.9375   12.0938 C   0  0  0  0  0  0  0  0  0  0  0  0
    4.6261   27.1679    7.1198 C   0  0  0  0  0  0  0  0  0  0  0  0
   -1.1103   25.2293    9.5396 C   0  0  0  0  0  0  0  0  0  0  0  0
    5.0573   23.9237    4.2193 C   0  0  0  0  0  0  0  0  0  0  0  0
    4.6376   23.6457    5.5427 C   0  0  0  0  0  0  0  0  0  0  0  0
    5.3271   25.2508    3.8766 C   0  0  0  0  0  0  0  0  0  0  0  0
   -2.6893   24.3027   11.2043 C   0  0  0  0  0  0  0  0  0  0  0  0
    4.5016   24.6986    6.4780 C   0  0  0  0  0  0  0  0  0  0  0  0
    5.1899   26.2738    4.8201 C   0  0  0  0  0  0  0  0  0  0  0  0
    1.8974   26.7924    7.8462 C   0  0  0  0  0  0  0  0  0  0  0  0
    0.6354   26.6379    8.4437 C   0  0  0  0  0  0  0  0  0  0  0  0
    2.3355   28.0146    7.2439 C   0  0  0  0  0  0  0  0  0  0  0  0
    0.3074   28.8660    7.8231 C   0  0  0  0  0  0  0  0  0  0  0  0
   -0.8244   25.7452   12.0947 C   0  0  2  0  0  0  0  0  0  0  0  0
   -1.6420   30.0165    8.3559 C   0  0  0  0  0  0  0  0  0  0  0  0
    4.7870   26.0167    6.1220 C   0  0  0  0  0  0  0  0  0  0  0  0
   -1.2284   24.7313   10.9978 C   0  0  2  0  0  0  0  0  0  0  0  0
   -0.3192   30.0636    7.6534 C   0  0  0  0  0  0  0  0  0  0  0  0
   -0.2291   24.3540   13.4657 H   0  0  0  0  0  0  0  0  0  0  0  0
   -3.2112   26.0653   13.2141 H   0  0  0  0  0  0  0  0  0  0  0  0
    0.9132   24.7250    9.0956 H   0  0  0  0  0  0  0  0  0  0  0  0
    3.7566   28.8119    5.9888 H   0  0  0  0  0  0  0  0  0  0  0  0
   -0.8374   31.0270   10.0049 H   0  0  0  0  0  0  0  0  0  0  0  0
   -2.1596   31.7626    9.3907 H   0  0  0  0  0  0  0  0  0  0  0  0
   -2.3225   30.4138   10.2966 H   0  0  0  0  0  0  0  0  0  0  0  0
   -2.7126   29.1089    6.8122 H   0  0  0  0  0  0  0  0  0  0  0  0
   -3.5416   29.1648    8.2180 H   0  0  0  0  0  0  0  0  0  0  0  0
   -3.3787   30.5136    7.3121 H   0  0  0  0  0  0  0  0  0  0  0  0
   -3.8218   25.9173   10.4664 H   0  0  0  0  0  0  0  0  0  0  0  0
   -4.5609   25.1343   11.6941 H   0  0  0  0  0  0  0  0  0  0  0  0
    0.2684   31.9947    6.8395 H   0  0  0  0  0  0  0  0  0  0  0  0
   -1.5262   27.5649   12.8306 H   0  0  0  0  0  0  0  0  0  0  0  0
   -1.7155   27.4121   11.2158 H   0  0  0  0  0  0  0  0  0  0  0  0
    4.3789   26.7929    8.0133 H   0  0  0  0  0  0  0  0  0  0  0  0
    5.4937   27.6596    7.1931 H   0  0  0  0  0  0  0  0  0  0  0  0
   -1.5441   24.5464    8.9518 H   0  0  0  0  0  0  0  0  0  0  0  0
   -1.6117   26.0921    9.4743 H   0  0  0  0  0  0  0  0  0  0  0  0
    5.1578   23.1896    3.5478 H   0  0  0  0  0  0  0  0  0  0  0  0
    4.4373   22.7050    5.8164 H   0  0  0  0  0  0  0  0  0  0  0  0
    5.6214   25.4717    2.9468 H   0  0  0  0  0  0  0  0  0  0  0  0
   -2.9697   23.7559   10.4153 H   0  0  0  0  0  0  0  0  0  0  0  0
   -2.7375   23.7432   12.0317 H   0  0  0  0  0  0  0  0  0  0  0  0
    4.1963   24.4947    7.4082 H   0  0  0  0  0  0  0  0  0  0  0  0
    5.3875   27.2158    4.5488 H   0  0  0  0  0  0  0  0  0  0  0  0
    2.5202   26.0100    7.8416 H   0  0  0  0  0  0  0  0  0  0  0  0
    0.1012   26.0729   11.9053 H   0  0  0  0  0  0  0  0  0  0  0  0
   -1.5156   29.1350    8.8108 H   0  0  0  0  0  0  0  0  0  0  0  0
   -0.6506   23.9210   11.0965 H   0  0  0  0  0  0  0  0  0  0  0  0
  1 25  1  0  0  0  0
  2  7  1  0  0  0  0
  2 11  2  0  0  0  0
  3 10  1  0  0  0  0
  3 12  1  0  0  0  0
  4 14  1  0  0  0  0
  4 22  1  0  0  0  0
  5 13  1  0  0  0  0
  5 23  1  0  0  0  0
  6 22  2  0  0  0  0
  6 24  1  0  0  0  0
  7 23  1  0  0  0  0
  7 24  1  0  0  0  0
  8 26  1  0  0  0  0
  9 26  1  0  0  0  0
 10 18  1  0  0  0  0
 11 29  1  0  0  0  0
 12 25  1  0  0  0  0
 13 27  1  0  0  0  0
 14 28  1  0  0  0  0
 15 16  2  0  0  0  0
 15 17  1  0  0  0  0
 16 19  1  0  0  0  0
 17 20  2  0  0  0  0
 18 28  1  0  0  0  0
 19 27  2  0  0  0  0
 20 27  1  0  0  0  0
 21 22  1  0  0  0  0
 21 23  2  0  0  0  0
 24 29  2  0  0  0  0
 25 28  1  0  0  0  0
 26 29  1  0  0  0  0
  1 30  1  0  0  0  0
  3 31  1  0  0  0  0
  4 32  1  0  0  0  0
  5 33  1  0  0  0  0
  8 34  1  0  0  0  0
  8 35  1  0  0  0  0
  8 36  1  0  0  0  0
  9 37  1  0  0  0  0
  9 38  1  0  0  0  0
  9 39  1  0  0  0  0
 10 40  1  0  0  0  0
 10 41  1  0  0  0  0
 11 42  1  0  0  0  0
 12 43  1  0  0  0  0
 12 44  1  0  0  0  0
 13 45  1  0  0  0  0
 13 46  1  0  0  0  0
 14 47  1  0  0  0  0
 14 48  1  0  0  0  0
 15 49  1  0  0  0  0
 16 50  1  0  0  0  0
 17 51  1  0  0  0  0
 18 52  1  0  0  0  0
 18 53  1  0  0  0  0
 19 54  1  0  0  0  0
 20 55  1  0  0  0  0
 21 56  1  0  0  0  0
 25 57  1  0  0  0  0
 26 58  1  0  0  0  0
 28 59  1  0  0  0  0
M  END
$$$$
