8QT_A_301
          05071912473D 1   1.00000     0.00000     0
            
 54 56  0  0  0  0            999 V2000
   -0.0987   26.1955   12.7269 O   0  0  0  0  0  0  0  0  0  0  0  0
    5.6894   23.8212    6.0040 N   0  0  0  0  0  0  0  0  0  0  0  0
    1.6333   30.2046    6.6486 N   0  0  0  0  0  0  0  0  0  0  0  0
    3.6724   28.0158    7.0741 N   0  0  0  0  0  0  0  0  0  0  0  0
    2.0825   26.9699    8.4088 N   0  0  0  0  0  0  0  0  0  0  0  0
   -0.0928   27.9183    8.8319 N   0  0  0  0  0  0  0  0  0  0  0  0
    0.5912   25.9453    9.8161 N   0  0  0  0  0  0  0  0  0  0  0  0
   -0.3836   30.0458    7.6590 N   0  0  0  0  0  0  0  0  0  0  0  0
   -0.7284   23.4017    9.3552 C   0  0  0  0  0  0  0  0  0  0  0  0
   -2.3700   26.3830   12.2034 C   0  0  0  0  0  0  0  0  0  0  0  0
   -1.6479   30.7891    9.5945 C   0  0  0  0  0  0  0  0  0  0  0  0
   -2.7594   29.3751    7.8271 C   0  0  0  0  0  0  0  0  0  0  0  0
    0.4789   30.7755    6.8859 C   0  0  0  0  0  0  0  0  0  0  0  0
    5.5132   24.0918    4.7006 C   0  0  0  0  0  0  0  0  0  0  0  0
    5.4457   24.8186    6.8627 C   0  0  0  0  0  0  0  0  0  0  0  0
    4.7627   27.1512    7.4983 C   0  0  0  0  0  0  0  0  0  0  0  0
   -0.9471   24.2201   10.5986 C   0  0  0  0  0  0  0  0  0  0  0  0
    5.1184   25.3002    4.2353 C   0  0  0  0  0  0  0  0  0  0  0  0
    4.8760   26.3027    5.1370 C   0  0  0  0  0  0  0  0  0  0  0  0
    0.8549   26.9654    8.9828 C   0  0  0  0  0  0  0  0  0  0  0  0
    2.4526   27.9924    7.6183 C   0  0  0  0  0  0  0  0  0  0  0  0
   -0.9719   26.5527   11.6589 C   0  0  2  0  0  0  0  0  0  0  0  0
    0.3225   28.9233    8.0372 C   0  0  0  0  0  0  0  0  0  0  0  0
   -1.7197   30.4468    8.1286 C   0  0  0  0  0  0  0  0  0  0  0  0
   -0.7375   25.7165   10.3828 C   0  0  1  0  0  0  0  0  0  0  0  0
    1.5391   29.0235    7.3868 C   0  0  0  0  0  0  0  0  0  0  0  0
    5.0350   26.0729    6.4791 C   0  0  0  0  0  0  0  0  0  0  0  0
    0.8506   26.2880   12.4264 H   0  0  0  0  0  0  0  0  0  0  0  0
    3.8459   28.6646    6.3332 H   0  0  0  0  0  0  0  0  0  0  0  0
    1.3317   25.3184   10.0582 H   0  0  0  0  0  0  0  0  0  0  0  0
   -0.8802   22.4351    9.5614 H   0  0  0  0  0  0  0  0  0  0  0  0
   -1.3688   23.6958    8.6457 H   0  0  0  0  0  0  0  0  0  0  0  0
    0.2091   23.5304    9.0320 H   0  0  0  0  0  0  0  0  0  0  0  0
   -3.0347   26.6205   11.4951 H   0  0  0  0  0  0  0  0  0  0  0  0
   -2.5058   25.4324   12.4827 H   0  0  0  0  0  0  0  0  0  0  0  0
   -2.4954   26.9836   12.9930 H   0  0  0  0  0  0  0  0  0  0  0  0
   -2.5540   31.0622    9.9177 H   0  0  0  0  0  0  0  0  0  0  0  0
   -1.3375   29.9896   10.1087 H   0  0  0  0  0  0  0  0  0  0  0  0
   -1.0046   31.5427    9.7297 H   0  0  0  0  0  0  0  0  0  0  0  0
   -3.6540   29.6763    8.1573 H   0  0  0  0  0  0  0  0  0  0  0  0
   -2.8030   29.2212    6.8400 H   0  0  0  0  0  0  0  0  0  0  0  0
   -2.5038   28.5242    8.2861 H   0  0  0  0  0  0  0  0  0  0  0  0
    0.2444   31.6794    6.5282 H   0  0  0  0  0  0  0  0  0  0  0  0
    5.6826   23.3619    4.0384 H   0  0  0  0  0  0  0  0  0  0  0  0
    5.5695   24.6411    7.8390 H   0  0  0  0  0  0  0  0  0  0  0  0
    4.5192   26.7230    8.3685 H   0  0  0  0  0  0  0  0  0  0  0  0
    5.5883   27.7027    7.6176 H   0  0  0  0  0  0  0  0  0  0  0  0
   -0.3067   23.9081   11.3003 H   0  0  0  0  0  0  0  0  0  0  0  0
   -1.8847   24.0734   10.9140 H   0  0  0  0  0  0  0  0  0  0  0  0
    5.0061   25.4577    3.2542 H   0  0  0  0  0  0  0  0  0  0  0  0
    4.5827   27.2031    4.8158 H   0  0  0  0  0  0  0  0  0  0  0  0
   -0.8297   27.5178   11.4391 H   0  0  0  0  0  0  0  0  0  0  0  0
   -1.9819   31.2751    7.6336 H   0  0  0  0  0  0  0  0  0  0  0  0
   -1.4069   26.0162    9.7031 H   0  0  0  0  0  0  0  0  0  0  0  0
  1 22  1  0  0  0  0
  2 14  2  0  0  0  0
  2 15  1  0  0  0  0
  3 13  2  0  0  0  0
  3 26  1  0  0  0  0
  4 16  1  0  0  0  0
  4 21  1  0  0  0  0
  5 20  2  0  0  0  0
  5 21  1  0  0  0  0
  6 20  1  0  0  0  0
  6 23  2  0  0  0  0
  7 20  1  0  0  0  0
  7 25  1  0  0  0  0
  8 13  1  0  0  0  0
  8 23  1  0  0  0  0
  8 24  1  0  0  0  0
  9 17  1  0  0  0  0
 10 22  1  0  0  0  0
 11 24  1  0  0  0  0
 12 24  1  0  0  0  0
 14 18  1  0  0  0  0
 15 27  2  0  0  0  0
 16 27  1  0  0  0  0
 17 25  1  0  0  0  0
 18 19  2  0  0  0  0
 19 27  1  0  0  0  0
 21 26  2  0  0  0  0
 22 25  1  0  0  0  0
 23 26  1  0  0  0  0
  1 28  1  0  0  0  0
  4 29  1  0  0  0  0
  7 30  1  0  0  0  0
  9 31  1  0  0  0  0
  9 32  1  0  0  0  0
  9 33  1  0  0  0  0
 10 34  1  0  0  0  0
 10 35  1  0  0  0  0
 10 36  1  0  0  0  0
 11 37  1  0  0  0  0
 11 38  1  0  0  0  0
 11 39  1  0  0  0  0
 12 40  1  0  0  0  0
 12 41  1  0  0  0  0
 12 42  1  0  0  0  0
 13 43  1  0  0  0  0
 14 44  1  0  0  0  0
 15 45  1  0  0  0  0
 16 46  1  0  0  0  0
 16 47  1  0  0  0  0
 17 48  1  0  0  0  0
 17 49  1  0  0  0  0
 18 50  1  0  0  0  0
 19 51  1  0  0  0  0
 22 52  1  0  0  0  0
 24 53  1  0  0  0  0
 25 54  1  0  0  0  0
M  END
$$$$
