1QK_A_301
          05071912473D 1   1.00000     0.00000     0
            
 57 60  0  0  0  0            999 V2000
    5.9714   25.2170    2.6483 O   0  5  0  0  0  0  0  0  0  0  0  0
   -0.9687   28.1687   11.0502 O   0  0  0  0  0  0  0  0  0  0  0  0
    1.8829   30.0298    6.6572 N   0  0  0  0  0  0  0  0  0  0  0  0
    3.9520   28.0735    6.8270 N   0  0  0  0  0  0  0  0  0  0  0  0
    0.2007   27.6222    8.6726 N   0  0  0  0  0  0  0  0  0  0  0  0
    5.5824   25.0531    3.8956 N   0  3  0  0  0  0  0  0  0  0  0  0
    1.7743   28.8488    7.3427 N   0  0  0  0  0  0  0  0  0  0  0  0
    0.8358   25.5483    9.5726 N   0  0  0  0  0  0  0  0  0  0  0  0
   -1.7918   31.1346    9.1105 C   0  0  0  0  0  0  0  0  0  0  0  0
   -1.3496   27.0686   11.8683 C   0  0  0  0  0  0  0  0  0  0  0  0
    0.7092   30.6298    6.8525 C   0  0  0  0  0  0  0  0  0  0  0  0
    5.0777   27.1733    6.9647 C   0  0  0  0  0  0  0  0  0  0  0  0
    5.3930   23.8052    4.3677 C   0  0  0  0  0  0  0  0  0  0  0  0
    1.8519   24.5332    9.8953 C   0  0  0  0  0  0  0  0  0  0  0  0
    5.3747   26.1330    4.6866 C   0  0  0  0  0  0  0  0  0  0  0  0
   -1.5883   30.1489    7.9724 C   0  0  0  0  0  0  0  0  0  0  0  0
    1.2274   23.2563   10.3823 C   0  0  0  0  0  0  0  0  0  0  0  0
    5.0250   23.6140    5.6758 C   0  0  0  0  0  0  0  0  0  0  0  0
   -0.0082   22.9728    9.5979 C   0  0  0  0  0  0  0  0  0  0  0  0
   -0.5003   25.8424   11.6364 C   0  0  0  0  0  0  0  0  0  0  0  0
   -1.0740   23.9838    9.9793 C   0  0  0  0  0  0  0  0  0  0  0  0
    4.8689   24.7070    6.5171 C   0  0  0  0  0  0  0  0  0  0  0  0
    2.4146   26.7888    8.2287 C   0  0  0  0  0  0  0  0  0  0  0  0
    2.7416   27.9035    7.4675 C   0  0  0  0  0  0  0  0  0  0  0  0
    1.1465   26.6608    8.8176 C   0  0  0  0  0  0  0  0  0  0  0  0
    0.5239   28.7068    7.9298 C   0  0  0  0  0  0  0  0  0  0  0  0
   -0.5112   25.3893   10.1737 C   0  0  2  0  0  0  0  0  0  0  0  0
    5.0885   25.9866    6.0301 C   0  0  0  0  0  0  0  0  0  0  0  0
   -0.1614   29.8679    7.6025 C   0  0  0  0  0  0  0  0  0  0  0  0
   -1.5620   28.9499   11.2448 H   0  0  0  0  0  0  0  0  0  0  0  0
    4.0584   28.8687    6.2300 H   0  0  0  0  0  0  0  0  0  0  0  0
   -2.7705   31.2525    9.2784 H   0  0  0  0  0  0  0  0  0  0  0  0
   -1.3516   30.7845    9.9374 H   0  0  0  0  0  0  0  0  0  0  0  0
   -1.3872   32.0155    8.8649 H   0  0  0  0  0  0  0  0  0  0  0  0
   -2.3025   26.8387   11.6705 H   0  0  0  0  0  0  0  0  0  0  0  0
   -1.2640   27.3393   12.8271 H   0  0  0  0  0  0  0  0  0  0  0  0
    0.4839   31.5356    6.4935 H   0  0  0  0  0  0  0  0  0  0  0  0
    5.0795   26.8255    7.9023 H   0  0  0  0  0  0  0  0  0  0  0  0
    5.9127   27.6991    6.8025 H   0  0  0  0  0  0  0  0  0  0  0  0
    5.5207   23.0180    3.7644 H   0  0  0  0  0  0  0  0  0  0  0  0
    2.4535   24.8923   10.6088 H   0  0  0  0  0  0  0  0  0  0  0  0
    2.3881   24.3389    9.0739 H   0  0  0  0  0  0  0  0  0  0  0  0
    5.4293   27.0502    4.2919 H   0  0  0  0  0  0  0  0  0  0  0  0
   -2.0492   30.5141    7.1636 H   0  0  0  0  0  0  0  0  0  0  0  0
   -2.0136   29.2831    8.2360 H   0  0  0  0  0  0  0  0  0  0  0  0
    0.9933   23.3484   11.3502 H   0  0  0  0  0  0  0  0  0  0  0  0
    1.8753   22.5035   10.2662 H   0  0  0  0  0  0  0  0  0  0  0  0
    4.8695   22.6889    6.0223 H   0  0  0  0  0  0  0  0  0  0  0  0
   -0.3322   22.0494    9.8036 H   0  0  0  0  0  0  0  0  0  0  0  0
    0.1902   23.0464    8.6205 H   0  0  0  0  0  0  0  0  0  0  0  0
   -0.8498   25.0980   12.2053 H   0  0  0  0  0  0  0  0  0  0  0  0
    0.4415   26.0501   11.9007 H   0  0  0  0  0  0  0  0  0  0  0  0
   -1.5024   23.6899   10.8337 H   0  0  0  0  0  0  0  0  0  0  0  0
   -1.7619   24.0123    9.2540 H   0  0  0  0  0  0  0  0  0  0  0  0
    4.5991   24.5721    7.4705 H   0  0  0  0  0  0  0  0  0  0  0  0
    3.0931   26.0659    8.3593 H   0  0  0  0  0  0  0  0  0  0  0  0
   -1.1201   26.0132    9.6839 H   0  0  0  0  0  0  0  0  0  0  0  0
  1  6  1  0  0  0  0
  2 10  1  0  0  0  0
  3  7  1  0  0  0  0
  3 11  2  0  0  0  0
  4 12  1  0  0  0  0
  4 24  1  0  0  0  0
  5 25  2  0  0  0  0
  5 26  1  0  0  0  0
  6 13  2  0  0  0  0
  6 15  1  0  0  0  0
  7 24  1  0  0  0  0
  7 26  1  0  0  0  0
  8 14  1  0  0  0  0
  8 25  1  0  0  0  0
  8 27  1  0  0  0  0
  9 16  1  0  0  0  0
 10 20  1  0  0  0  0
 11 29  1  0  0  0  0
 12 28  1  0  0  0  0
 13 18  1  0  0  0  0
 14 17  1  0  0  0  0
 15 28  2  0  0  0  0
 16 29  1  0  0  0  0
 17 19  1  0  0  0  0
 18 22  2  0  0  0  0
 19 21  1  0  0  0  0
 20 27  1  0  0  0  0
 21 27  1  0  0  0  0
 22 28  1  0  0  0  0
 23 24  2  0  0  0  0
 23 25  1  0  0  0  0
 26 29  2  0  0  0  0
  2 30  1  0  0  0  0
  4 31  1  0  0  0  0
  9 32  1  0  0  0  0
  9 33  1  0  0  0  0
  9 34  1  0  0  0  0
 10 35  1  0  0  0  0
 10 36  1  0  0  0  0
 11 37  1  0  0  0  0
 12 38  1  0  0  0  0
 12 39  1  0  0  0  0
 13 40  1  0  0  0  0
 14 41  1  0  0  0  0
 14 42  1  0  0  0  0
 15 43  1  0  0  0  0
 16 44  1  0  0  0  0
 16 45  1  0  0  0  0
 17 46  1  0  0  0  0
 17 47  1  0  0  0  0
 18 48  1  0  0  0  0
 19 49  1  0  0  0  0
 19 50  1  0  0  0  0
 20 51  1  0  0  0  0
 20 52  1  0  0  0  0
 21 53  1  0  0  0  0
 21 54  1  0  0  0  0
 22 55  1  0  0  0  0
 23 56  1  0  0  0  0
 27 57  1  0  0  0  0
M  CHG  2   1  -1   6   1
M  END
$$$$
