FB8_A_301
          05071912473D 1   1.00000     0.00000     0
            
 47 49  0  0  0  0            999 V2000
    5.5391   23.7532    7.7867 S   0  0  0  0  0  0  0  0  0  0  0  0
    6.6399   24.1937    8.6172 O   0  0  0  0  0  0  0  0  0  0  0  0
    4.5817   22.7994    8.2686 O   0  0  0  0  0  0  0  0  0  0  0  0
    1.5965   30.6584    6.6785 N   0  0  0  0  0  0  0  0  0  0  0  0
   -3.4271   28.5928   10.0085 N   0  0  0  0  0  0  0  0  0  0  0  0
    2.6046   28.7153    6.4209 N   0  0  0  0  0  0  0  0  0  0  0  0
    0.5994   28.7700    7.7491 N   0  0  0  0  0  0  0  0  0  0  0  0
   -1.3433   27.7815    9.8030 N   0  0  0  0  0  0  0  0  0  0  0  0
    6.2846   23.2317    6.3028 C   0  0  0  0  0  0  0  0  0  0  0  0
   -2.9447   26.5417   11.3354 C   0  0  0  0  0  0  0  0  0  0  0  0
    0.2044   27.1113   11.5432 C   0  0  0  0  0  0  0  0  0  0  0  0
   -0.3254   25.6413    9.4662 C   0  0  0  0  0  0  0  0  0  0  0  0
    0.6470   31.4279    7.2168 C   0  0  0  0  0  0  0  0  0  0  0  0
   -2.7074   29.4183    9.1832 C   0  0  0  0  0  0  0  0  0  0  0  0
   -0.4252   30.9306    7.9314 C   0  0  0  0  0  0  0  0  0  0  0  0
    3.6494   25.6533    8.2511 C   0  0  0  0  0  0  0  0  0  0  0  0
    4.8935   25.8630    6.2226 C   0  0  0  0  0  0  0  0  0  0  0  0
    2.9426   26.7945    7.9434 C   0  0  0  0  0  0  0  0  0  0  0  0
    4.2411   27.0428    5.9487 C   0  0  0  0  0  0  0  0  0  0  0  0
    1.5555   29.3479    6.9850 C   0  0  0  0  0  0  0  0  0  0  0  0
    4.6202   25.2010    7.3915 C   0  0  0  0  0  0  0  0  0  0  0  0
   -2.5844   27.6553   10.4065 C   0  0  0  0  0  0  0  0  0  0  0  0
    3.2217   27.5024    6.7676 C   0  0  0  0  0  0  0  0  0  0  0  0
   -0.1483   27.0110   10.0390 C   0  0  0  0  0  0  0  0  0  0  0  0
   -0.3876   29.5638    8.2099 C   0  0  0  0  0  0  0  0  0  0  0  0
   -1.4259   28.9733    9.0371 C   0  0  0  0  0  0  0  0  0  0  0  0
    3.0055   29.1828    5.6330 H   0  0  0  0  0  0  0  0  0  0  0  0
    5.5798   22.9095    5.6709 H   0  0  0  0  0  0  0  0  0  0  0  0
    6.7774   23.9978    5.8901 H   0  0  0  0  0  0  0  0  0  0  0  0
    6.9251   22.4882    6.4949 H   0  0  0  0  0  0  0  0  0  0  0  0
   -2.1440   25.9623   11.4876 H   0  0  0  0  0  0  0  0  0  0  0  0
   -3.2519   26.9217   12.2079 H   0  0  0  0  0  0  0  0  0  0  0  0
   -3.6794   25.9959   10.9324 H   0  0  0  0  0  0  0  0  0  0  0  0
    1.0326   26.5820   11.7274 H   0  0  0  0  0  0  0  0  0  0  0  0
    0.3598   28.0688   11.7860 H   0  0  0  0  0  0  0  0  0  0  0  0
   -0.5515   26.7478   12.0877 H   0  0  0  0  0  0  0  0  0  0  0  0
    0.5016   25.1029    9.6277 H   0  0  0  0  0  0  0  0  0  0  0  0
   -1.1050   25.1946    9.9054 H   0  0  0  0  0  0  0  0  0  0  0  0
   -0.4915   25.7103    8.4825 H   0  0  0  0  0  0  0  0  0  0  0  0
    0.7161   32.4181    7.0959 H   0  0  0  0  0  0  0  0  0  0  0  0
   -3.0740   30.2393    8.7456 H   0  0  0  0  0  0  0  0  0  0  0  0
   -1.1809   31.5134    8.2304 H   0  0  0  0  0  0  0  0  0  0  0  0
    3.4566   25.1561    9.0970 H   0  0  0  0  0  0  0  0  0  0  0  0
    5.5600   25.4922    5.5758 H   0  0  0  0  0  0  0  0  0  0  0  0
    2.2271   27.1190    8.5621 H   0  0  0  0  0  0  0  0  0  0  0  0
    4.5066   27.5771    5.1463 H   0  0  0  0  0  0  0  0  0  0  0  0
    0.5926   27.4506    9.5312 H   0  0  0  0  0  0  0  0  0  0  0  0
  1  2  2  0  0  0  0
  1  3  2  0  0  0  0
  1  9  1  0  0  0  0
  1 21  1  0  0  0  0
  4 13  2  0  0  0  0
  4 20  1  0  0  0  0
  5 14  1  0  0  0  0
  5 22  2  0  0  0  0
  6 20  1  0  0  0  0
  6 23  1  0  0  0  0
  7 20  2  0  0  0  0
  7 25  1  0  0  0  0
  8 22  1  0  0  0  0
  8 24  1  0  0  0  0
  8 26  1  0  0  0  0
 10 22  1  0  0  0  0
 11 24  1  0  0  0  0
 12 24  1  0  0  0  0
 13 15  1  0  0  0  0
 14 26  2  0  0  0  0
 15 25  2  0  0  0  0
 16 18  1  0  0  0  0
 16 21  2  0  0  0  0
 17 19  2  0  0  0  0
 17 21  1  0  0  0  0
 18 23  2  0  0  0  0
 19 23  1  0  0  0  0
 25 26  1  0  0  0  0
  6 27  1  0  0  0  0
  9 28  1  0  0  0  0
  9 29  1  0  0  0  0
  9 30  1  0  0  0  0
 10 31  1  0  0  0  0
 10 32  1  0  0  0  0
 10 33  1  0  0  0  0
 11 34  1  0  0  0  0
 11 35  1  0  0  0  0
 11 36  1  0  0  0  0
 12 37  1  0  0  0  0
 12 38  1  0  0  0  0
 12 39  1  0  0  0  0
 13 40  1  0  0  0  0
 14 41  1  0  0  0  0
 15 42  1  0  0  0  0
 16 43  1  0  0  0  0
 17 44  1  0  0  0  0
 18 45  1  0  0  0  0
 19 46  1  0  0  0  0
 24 47  1  0  0  0  0
M  END
$$$$
