@<TRIPOS>MOLECULE
H:00L372
    81    84     1     0     0
SMALL
USER_CHARGES
****
Generated from the CSD

@<TRIPOS>ATOM
     1 C1      18.1254 -12.9991  20.9145   C.3       1 00L372   0.0000
     2 N1      19.3052 -15.0935  20.8866   N.3       1 00L372   0.0000
     3 O1      16.5821 -14.0744  22.9658   O.2       1 00L372   0.0000
     4 C2      19.3201 -12.9104  19.9581   C.3       1 00L372   0.0000
     5 N2      18.3752 -14.2972  21.5885   N.am      1 00L372   0.0000
     6 O2      16.2084 -13.9849  20.0311   O.2       1 00L372   0.0000
     7 C3      20.2407 -14.1142  20.3097   C.3       1 00L372   0.0000
     8 N3      16.3421 -16.7282  23.2353   N.3       1 00L372   0.0000
     9 C4      19.8219 -16.1710  21.7755   C.3       1 00L372   0.0000
    10 C5      18.6925 -16.9812  22.4722   C.3       1 00L372   0.0000
    11 C6      17.7212 -16.1379  23.2580   C.3       1 00L372   0.0000
    12 C7      17.5478 -14.7322  22.6194   C.2       1 00L372   0.0000
    13 C8      16.7197 -12.8903  20.3525   C.2       1 00L372   0.0000
    14 C9      17.9757 -16.1110  24.7865   C.3       1 00L372   0.0000
    15 C10     19.4128 -15.7262  25.1537   C.ar      1 00L372   0.0000
    16 C15     19.7994 -14.3957  25.4185   C.ar      1 00L372   0.0000
    17 C14     21.1149 -14.0657  25.7921   C.ar      1 00L372   0.0000
    18 C13     22.1183 -15.0330  25.8087   C.ar      1 00L372   0.0000
    19 C12     21.7526 -16.3453  25.5548   C.ar      1 00L372   0.0000
    20 C11     20.4255 -16.7112  25.2533   C.ar      1 00L372   0.0000
    21 C       14.5223 -10.9274  18.4175   C.2       1 00L372   0.0000
    22 N       15.9818 -11.7326  20.2258   N.am      1 00L372   0.0000
    23 O       13.4479 -10.5606  17.8271   O.2       1 00L372   0.0000
    24 CA      14.5657 -11.6926  19.7571   C.3       1 00L372   0.0000
    25 CB      13.6294 -10.9365  20.7271   C.3       1 00L372   0.0000
    26 CD      12.2908 -11.3543  22.8099   C.2       1 00L372   0.0000
    27 NE      11.5606 -12.3447  23.5365   N.pl3     1 00L372   0.0000
    28 CG      13.0975 -11.8926  21.7453   C.2       1 00L372   0.0000
    29 CZ      10.7772 -12.1733  24.5643   C.cat     1 00L372   0.0000
    30 O1X     16.6839 -11.1104  17.4534   O.2       1 00L372   0.0000
    31 C9X     15.5492 -11.4630  17.4186   C.2       1 00L372   0.0000
    32 NH1     10.6208 -10.9197  25.0533   N.pl3     1 00L372   1.0000
    33 NH2     10.0567 -13.1603  25.1029   N.pl3     1 00L372   1.0000
    34 C1X     14.4520 -12.2803  13.6222   C.ar      1 00L372   0.0000
    35 C6X     13.7070 -13.3646  14.1092   C.ar      1 00L372   0.0000
    36 C5X     12.3956 -13.5709  13.6411   C.ar      1 00L372   0.0000
    37 C4X     11.8460 -12.6778  12.6780   C.ar      1 00L372   0.0000
    38 C3X     12.6039 -11.5753  12.2289   C.ar      1 00L372   0.0000
    39 C2X     13.9103 -11.3500  12.7169   C.ar      1 00L372   0.0000
    40 C7X     15.8975 -12.0607  14.2030   C.3       1 00L372   0.0000
    41 C8X     15.8887 -12.9444  15.5080   C.3       1 00L372   0.0000
    42 N1X     14.9085 -12.3686  16.4648   N.am      1 00L372   0.0000
    43 H1      22.5168 -17.1204  25.5895   H         1 00L372   0.0000
    44 H2      20.1767 -17.7596  25.0957   H         1 00L372   0.0000
    45 H3      16.4292 -10.8538  20.4661   H         1 00L372   0.0000
    46 H4      19.8526 -11.9717  20.1037   H         1 00L372   0.0000
    47 H5      18.9837 -12.9805  18.9248   H         1 00L372   0.0000
    48 H6      16.3651 -17.6575  23.6428   H         1 00L372   0.0000
    49 H7      15.7131 -16.1391  23.7716   H         1 00L372   0.0000
    50 H8      20.7218 -14.5120  19.4173   H         1 00L372   0.0000
    51 H9      21.0011 -13.8262  21.0342   H         1 00L372   0.0000
    52 H10     20.4469 -15.7171  22.5431   H         1 00L372   0.0000
    53 H11     20.4213 -16.8559  21.1774   H         1 00L372   0.0000
    54 H12     18.2426 -12.2141  21.6601   H         1 00L372   0.0000
    55 H13     17.7693 -17.1016  25.1890   H         1 00L372   0.0000
    56 H14     17.2980 -15.3876  25.2373   H         1 00L372   0.0000
    57 H15     19.0590 -13.6019  25.3312   H         1 00L372   0.0000
    58 H16     21.3525 -13.0405  26.0722   H         1 00L372   0.0000
    59 H17     19.1542 -17.6944  23.1534   H         1 00L372   0.0000
    60 H18     18.1357 -17.5190  21.7062   H         1 00L372   0.0000
    61 H19     23.1541 -14.7666  26.0141   H         1 00L372   0.0000
    62 H20     14.4827 -10.4792  12.4007   H         1 00L372   0.0000
    63 H21     13.3123 -12.9584  21.6843   H         1 00L372   0.0000
    64 H22     11.8057 -14.4074  14.0129   H         1 00L372   0.0000
    65 H23     16.0694 -11.0120  14.4407   H         1 00L372   0.0000
    66 H24     16.6577 -12.4035  13.5026   H         1 00L372   0.0000
    67 H25      9.4612 -12.9752  25.9037   H         1 00L372   0.0000
    68 H26     10.1046 -14.0956  24.7114   H         1 00L372   0.0000
    69 H27     11.6649 -13.3007  23.2119   H         1 00L372   0.0000
    70 H28     14.1994 -12.7077  19.6111   H         1 00L372   0.0000
    71 H29     10.0165 -10.7585  25.8527   H         1 00L372   0.0000
    72 H30     11.1077 -10.1415  24.6201   H         1 00L372   0.0000
    73 H31     12.8016 -10.5016  20.1689   H         1 00L372   0.0000
    74 H32     14.1857 -10.1449  21.2269   H         1 00L372   0.0000
    75 H33     10.8428 -12.8452  12.2887   H         1 00L372   0.0000
    76 H34     13.9154 -12.5780  16.4575   H         1 00L372   0.0000
    77 H35     14.1401 -14.0418  14.8439   H         1 00L372   0.0000
    78 H36     16.8811 -12.9462  15.9564   H         1 00L372   0.0000
    79 H37     15.6013 -13.9646  15.2582   H         1 00L372   0.0000
    80 H38     12.2417 -10.2910  23.0398   H         1 00L372   0.0000
    81 H39     12.1768 -10.8904  11.4978   H         1 00L372   0.0000
@<TRIPOS>BOND
     1     1     4    1
     2     1     5    1
     3     1    13    1
     4     2     5    1
     5     2     7    1
     6     2     9    1
     7     3    12    2
     8     4     7    1
     9     5    12   am
    10     6    13    2
    11     8    11    1
    12     9    10    1
    13    10    11    1
    14    11    12    1
    15    11    14    1
    16    13    22   am
    17    14    15    1
    18    15    16   ar
    19    15    20   ar
    20    16    17   ar
    21    17    18   ar
    22    18    19   ar
    23    19    20   ar
    24    21    23    2
    25    21    24    1
    26    21    31    1
    27    22    24    1
    28    24    25    1
    29    25    28    1
    30    26    27    1
    31    26    28    2
    32    27    29    1
    33    29    32   ar
    34    29    33   ar
    35    30    31    2
    36    31    42   am
    37    34    35   ar
    38    34    39   ar
    39    34    40    1
    40    35    36   ar
    41    36    37   ar
    42    37    38   ar
    43    38    39   ar
    44    40    41    1
    45    41    42    1
    46    19    43    1
    47    20    44    1
    48    22    45    1
    49     4    46    1
    50     4    47    1
    51     8    48    1
    52     8    49    1
    53     7    50    1
    54     7    51    1
    55     9    52    1
    56     9    53    1
    57     1    54    1
    58    14    55    1
    59    14    56    1
    60    16    57    1
    61    17    58    1
    62    10    59    1
    63    10    60    1
    64    18    61    1
    65    39    62    1
    66    28    63    1
    67    36    64    1
    68    40    65    1
    69    40    66    1
    70    33    67    1
    71    33    68    1
    72    27    69    1
    73    24    70    1
    74    32    71    1
    75    32    72    1
    76    25    73    1
    77    25    74    1
    78    37    75    1
    79    42    76    1
    80    35    77    1
    81    41    78    1
    82    41    79    1
    83    26    80    1
    84    38    81    1
@<TRIPOS>SUBSTRUCTURE
     1 00L372      1 GROUP             0 H     00L     0  
@<TRIPOS>MOLECULE
H:BCN1500
    21    20     1     0     0
SMALL
NO_CHARGES
****
Generated from the CSD

@<TRIPOS>ATOM
     1 N1      14.8546  -0.9925  37.5683   N.3       1 BCN1500   0.0000
     2 C1      15.0338   0.4221  37.1803   C.3       1 BCN1500   0.0000
     3 C2      16.3468   0.6538  36.5002   C.ar      1 BCN1500   0.0000
     4 O21     16.9574  -0.3704  36.1603   O.co2     1 BCN1500   0.0000
     5 O22     16.7829   1.8327  36.3209   O.co2     1 BCN1500   0.0000
     6 C3      14.3525  -1.8228  36.5011   C.3       1 BCN1500   0.0000
     7 C4      14.4943  -3.3443  36.5284   C.3       1 BCN1500   0.0000
     8 O4      13.7287  -4.2128  35.6821   O.3       1 BCN1500   0.0000
     9 C5      14.0939  -0.9887  38.8216   C.3       1 BCN1500   0.0000
    10 C6      12.6759  -1.3780  38.7032   C.2       1 BCN1500   0.0000
    11 O6      12.4409  -2.6996  38.7169   O.2       1 BCN1500   0.0000
    12 H1      14.9870   1.0410  38.0751   H         1 BCN1500   0.0000
    13 H2      14.2310   0.7049  36.5009   H         1 BCN1500   0.0000
    14 H3      14.1323   0.0181  39.2348   H         1 BCN1500   0.0000
    15 H4      14.5761  -1.6819  39.5092   H         1 BCN1500   0.0000
    16 H5      14.8490  -1.4858  35.5923   H         1 BCN1500   0.0000
    17 H6      13.2856  -1.6165  36.4296   H         1 BCN1500   0.0000
    18 H7      11.8760  -0.6447  38.6111   H         1 BCN1500   0.0000
    19 H8      14.2729  -3.6485  37.5503   H         1 BCN1500   0.0000
    20 H9      15.5398  -3.5527  36.3059   H         1 BCN1500   0.0000
    21 H10     13.9164  -3.9980  34.7310   H         1 BCN1500   0.0000
@<TRIPOS>BOND
     1     1     2    1
     2     1     6    1
     3     1     9    1
     4     2     3    1
     5     3     4   ar
     6     3     5   ar
     7     6     7    1
     8     7     8    1
     9     9    10    1
    10    10    11    2
    11     2    12    1
    12     2    13    1
    13     9    14    1
    14     9    15    1
    15     6    16    1
    16     6    17    1
    17    10    18    1
    18     7    19    1
    19     7    20    1
    20     8    21    1
@<TRIPOS>SUBSTRUCTURE
     1 BCN1500     1 GROUP             0 H     BCN     0  
@<TRIPOS>MOLECULE
H:RA85555
    73    74     1     0     0
SMALL
USER_CHARGES
****
Generated from the CSD

@<TRIPOS>ATOM
     1 C27     18.6978 -16.4607  26.7661   C.3       1 RA85555   0.0000
     2 S26     17.9693 -17.5892  25.5612   S.o2      1 RA85555   0.0000
     3 C30     19.9334 -15.7813  26.1942   C.ar      1 RA85555   0.0000
     4 C31     21.0698 -16.5226  25.8587   C.ar      1 RA85555   0.0000
     5 C32     22.1938 -15.8811  25.3321   C.ar      1 RA85555   0.0000
     6 C33     22.1834 -14.4941  25.1451   C.ar      1 RA85555   0.0000
     7 C34     21.0362 -13.7639  25.4737   C.ar      1 RA85555   0.0000
     8 C35     19.9211 -14.3973  26.0122   C.ar      1 RA85555   0.0000
     9 O15     16.8338 -18.1770  26.2405   O.2       1 RA85555   0.0000
    10 O29     19.0134 -18.4159  25.0012   O.2       1 RA85555   0.0000
    11 N25     17.4915 -16.6272  24.5040   N.pl3     1 RA85555   0.0000
    12 C19     17.9898 -16.2614  23.2265   C.3       1 RA85555   0.0000
    13 C18     17.9585 -14.8812  23.1255   C.2       1 RA85555   0.0000
    14 O24     16.8910 -14.3318  23.3591   O.2       1 RA85555   0.0000
    15 C20     17.4904 -17.1075  22.0498   C.3       1 RA85555   0.0000
    16 C21     17.6631 -18.6174  22.2974   C.3       1 RA85555   0.0000
    17 C22     17.6456 -19.3574  20.9538   C.3       1 RA85555   0.0000
    18 C23     16.4930 -19.1224  23.1743   C.3       1 RA85555   0.0000
    19 N16     18.7103 -14.3462  22.1319   N.am      1 RA85555   0.0000
    20 C11     18.4719 -12.9841  21.6792   C.3       1 RA85555   0.0000
    21 C5      17.1486 -12.9249  20.9548   C.2       1 RA85555   0.0000
    22 O12     16.8176 -13.8556  20.2285   O.2       1 RA85555   0.0000
    23 C13     19.7401 -12.7851  20.6471   C.3       1 RA85555   0.0000
    24 C14     20.8490 -13.8169  20.9712   C.3       1 RA85555   0.0000
    25 C17     20.2064 -14.8571  21.9297   C.3       1 RA85555   0.0000
    26 N10     16.4908 -11.5799  20.8925   N.am      1 RA85555   0.0000
    27 C9      15.1763 -11.6902  20.2352   C.3       1 RA85555   0.0000
    28 C8      14.1829 -10.9001  21.1273   C.3       1 RA85555   0.0000
    29 C7      13.4607 -11.8883  22.0516   C.3       1 RA85555   0.0000
    30 C6      12.3735 -11.1277  22.8540   C.3       1 RA85555   0.0000
    31 N4      11.6943 -12.1212  23.6383   N.pl3     1 RA85555   0.0000
    32 C2      10.8271 -11.7392  24.4717   C.cat     1 RA85555   0.0000
    33 N1      10.6373 -10.5565  24.9110   N.pl3     1 RA85555   1.0000
    34 N3      10.2393 -12.6928  25.0957   N.pl3     1 RA85555   1.0000
    35 H1      16.6377 -16.1407  24.7580   H         1 RA85555   0.0000
    36 H2      11.9069 -13.1072  23.5248   H         1 RA85555   0.0000
    37 H3      14.8745 -12.7342  20.1660   H         1 RA85555   0.0000
    38 H4      15.2151 -11.2567  19.2369   H         1 RA85555   0.0000
    39 H5      18.4608 -18.9951  20.3291   H         1 RA85555   0.0000
    40 H6      17.7676 -20.4258  21.1261   H         1 RA85555   0.0000
    41 H7      16.6960 -19.1768  20.4522   H         1 RA85555   0.0000
    42 H8      18.6087 -18.8006  22.8056   H         1 RA85555   0.0000
    43 H9      20.2166 -15.8499  21.4824   H         1 RA85555   0.0000
    44 H10     20.7360 -14.8821  22.8809   H         1 RA85555   0.0000
    45 H11     16.8917 -10.7190  21.2506   H         1 RA85555   0.0000
    46 H12     18.9789 -17.0219  27.6560   H         1 RA85555   0.0000
    47 H13     17.9642 -15.7012  27.0325   H         1 RA85555   0.0000
    48 H14     14.1770 -12.3345  22.7398   H         1 RA85555   0.0000
    49 H15     12.9938 -12.6710  21.4556   H         1 RA85555   0.0000
    50 H16     19.0429 -13.8165  26.2904   H         1 RA85555   0.0000
    51 H17     21.6912 -13.3261  21.4566   H         1 RA85555   0.0000
    52 H18     21.1895 -14.3043  20.0588   H         1 RA85555   0.0000
    53 H19      9.9001 -10.3778  25.5853   H         1 RA85555   0.0000
    54 H20     11.2236  -9.7943  24.5861   H         1 RA85555   0.0000
    55 H21     23.0774 -16.4599  25.0674   H         1 RA85555   0.0000
    56 H22     15.5499 -18.9404  22.6609   H         1 RA85555   0.0000
    57 H23     16.6084 -20.1903  23.3537   H         1 RA85555   0.0000
    58 H24     16.4968 -18.5919  24.1253   H         1 RA85555   0.0000
    59 H25     23.0613 -13.9874  24.7469   H         1 RA85555   0.0000
    60 H26     18.5103 -12.2743  22.5041   H         1 RA85555   0.0000
    61 H27     11.6757 -10.6383  22.1762   H         1 RA85555   0.0000
    62 H28     12.8330 -10.3828  23.5020   H         1 RA85555   0.0000
    63 H29      9.5258 -12.4833  25.7865   H         1 RA85555   0.0000
    64 H30     10.4876 -13.6570  24.8988   H         1 RA85555   0.0000
    65 H31     13.4558 -10.3863  20.5002   H         1 RA85555   0.0000
    66 H32     14.7272 -10.1702  21.7246   H         1 RA85555   0.0000
    67 H33     18.0523 -16.8328  21.1583   H         1 RA85555   0.0000
    68 H34     16.4336 -16.8976  21.8918   H         1 RA85555   0.0000
    69 H35     20.1403 -11.7782  20.7564   H         1 RA85555   0.0000
    70 H36     19.3990 -12.9309  19.6232   H         1 RA85555   0.0000
    71 H37     21.0791 -17.6013  26.0078   H         1 RA85555   0.0000
    72 H38     19.0519 -16.4950  23.2838   H         1 RA85555   0.0000
    73 H39     21.0160 -12.6881  25.3061   H         1 RA85555   0.0000
@<TRIPOS>BOND
     1     1     2    1
     2     1     3    1
     3     2     9    2
     4     2    10    2
     5     2    11    1
     6     3     4   ar
     7     3     8   ar
     8     4     5   ar
     9     5     6   ar
    10     6     7   ar
    11     7     8   ar
    12    11    12    1
    13    12    13    1
    14    12    15    1
    15    13    14    2
    16    13    19   am
    17    15    16    1
    18    16    17    1
    19    16    18    1
    20    19    20    1
    21    19    25    1
    22    20    21    1
    23    20    23    1
    24    21    22    2
    25    21    26   am
    26    23    24    1
    27    24    25    1
    28    26    27    1
    29    27    28    1
    30    28    29    1
    31    29    30    1
    32    30    31    1
    33    31    32    1
    34    32    33   ar
    35    32    34   ar
    36    11    35    1
    37    31    36    1
    38    27    37    1
    39    27    38    1
    40    17    39    1
    41    17    40    1
    42    17    41    1
    43    16    42    1
    44    25    43    1
    45    25    44    1
    46    26    45    1
    47     1    46    1
    48     1    47    1
    49    29    48    1
    50    29    49    1
    51     8    50    1
    52    24    51    1
    53    24    52    1
    54    33    53    1
    55    33    54    1
    56     5    55    1
    57    18    56    1
    58    18    57    1
    59    18    58    1
    60     6    59    1
    61    20    60    1
    62    30    61    1
    63    30    62    1
    64    34    63    1
    65    34    64    1
    66    28    65    1
    67    28    66    1
    68    15    67    1
    69    15    68    1
    70    23    69    1
    71    23    70    1
    72     4    71    1
    73    12    72    1
    74     7    73    1
@<TRIPOS>SUBSTRUCTURE
     1 RA85555     1 GROUP             0 H     RA8     0  
@<TRIPOS>MOLECULE
B:157500
    38    38     1     0     0
SMALL
NO_CHARGES
****
Generated from the CSD

@<TRIPOS>ATOM
     1 C1      13.6282 -11.7104  20.7347   C.3       1 157500   0.0000
     2 C2      12.8915 -10.4519  21.1303   C.3       1 157500   0.0000
     3 C3      11.7749 -10.8125  22.0527   C.3       1 157500   0.0000
     4 C4      12.2742 -11.4606  23.3193   C.2       1 157500   0.0000
     5 C5      11.1701 -11.6545  24.3009   C.2       1 157500   0.0000
     6 N6      10.7782 -10.6549  25.0624   N.pl3     1 157500   0.0000
     7 N7      10.5937 -12.8138  24.4762   N.pl3     1 157500   0.0000
     8 O8      13.4611 -10.3558  17.6519   O.2       1 157500   0.0000
     9 O9      16.6573 -11.4543  17.2550   O.3       1 157500   0.0000
    10 C10     15.6560 -12.3182  19.2663   C.3       1 157500   0.0000
    11 C11     16.9025 -14.3891  19.2350   C.3       1 157500   0.0000
    12 C12     15.7345 -13.6943  19.9095   C.3       1 157500   0.0000
    13 C13     16.1458 -12.6010  17.8551   C.3       1 157500   0.0000
    14 C14     17.2687 -13.5855  17.9988   C.3       1 157500   0.0000
    15 C16     14.2580 -11.7175  19.3433   C.3       1 157500   0.0000
    16 C15     14.2225 -10.4215  18.5769   C.2       1 157500   0.0000
    17 H1      12.4890  -9.9694  20.2409   H         1 157500   0.0000
    18 H2      13.5760  -9.7712  21.6343   H         1 157500   0.0000
    19 H3      11.1077 -11.5057  21.5426   H         1 157500   0.0000
    20 H4      11.2280  -9.9075  22.3130   H         1 157500   0.0000
    21 H5      13.3093 -11.7499  23.4943   H         1 157500   0.0000
    22 H6      12.9214 -12.5375  20.7831   H         1 157500   0.0000
    23 H7      14.4245 -11.8705  21.4601   H         1 157500   0.0000
    24 H8      10.0258 -10.7903  25.7301   H         1 157500   0.0000
    25 H9      11.2284  -9.7488  24.9820   H         1 157500   0.0000
    26 H10      9.8442 -12.9107  25.1537   H         1 157500   0.0000
    27 H11     10.8955 -13.6177  23.9349   H         1 157500   0.0000
    28 H12     17.4205 -11.1128  17.7906   H         1 157500   0.0000
    29 H13     16.3597 -11.6511  19.7621   H         1 157500   0.0000
    30 H14     13.6349 -12.3967  18.7633   H         1 157500   0.0000
    31 H15     14.8594  -9.5815  18.8501   H         1 157500   0.0000
    32 H16     14.8122 -14.2476  19.7389   H         1 157500   0.0000
    33 H17     15.9114 -13.6048  20.9803   H         1 157500   0.0000
    34 H18     16.6170 -15.4002  18.9486   H         1 157500   0.0000
    35 H19     17.7520 -14.4306  19.9151   H         1 157500   0.0000
    36 H20     17.3317 -14.2303  17.1234   H         1 157500   0.0000
    37 H21     18.2181 -13.0709  18.1396   H         1 157500   0.0000
    38 H22     15.3441 -13.0226  17.2505   H         1 157500   0.0000
@<TRIPOS>BOND
     1     1     2    1
     2     1    15    1
     3     2     3    1
     4     3     4    1
     5     4     5    2
     6     5     6    1
     7     5     7    1
     8     8    16    2
     9     9    13    1
    10    10    12    1
    11    10    13    1
    12    10    15    1
    13    11    12    1
    14    11    14    1
    15    13    14    1
    16    15    16    1
    17     2    17    1
    18     2    18    1
    19     3    19    1
    20     3    20    1
    21     4    21    1
    22     1    22    1
    23     1    23    1
    24     6    24    1
    25     6    25    1
    26     7    26    1
    27     7    27    1
    28     9    28    1
    29    10    29    1
    30    15    30    1
    31    16    31    1
    32    12    32    1
    33    12    33    1
    34    11    34    1
    35    11    35    1
    36    14    36    1
    37    14    37    1
    38    13    38    1
@<TRIPOS>SUBSTRUCTURE
     1 157500      1 GROUP             0 B     157     0  
@<TRIPOS>MOLECULE
H:PPX907
    43    44     1     0     0
SMALL
NO_CHARGES
****
Generated from the CSD

@<TRIPOS>ATOM
     1 N1      16.5456 -16.9263  23.6967   N.3       1 PPX907   0.0000
     2 C2      17.8189 -16.1501  23.8412   C.3       1 PPX907   0.0000
     3 C10     17.5684 -14.8073  23.1266   C.2       1 PPX907   0.0000
     4 O11     16.5321 -14.1869  23.3477   O.2       1 PPX907   0.0000
     5 C3      18.1025 -15.9227  25.3337   C.3       1 PPX907   0.0000
     6 N12     18.4840 -14.4012  22.2255   N.am      1 PPX907   0.0000
     7 C14     18.3397 -13.1231  21.5005   C.3       1 PPX907   0.0000
     8 C17     17.0214 -13.0541  20.7455   C.2       1 PPX907   0.0000
     9 O18     16.6852 -13.9631  19.9901   O.2       1 PPX907   0.0000
    10 C15     19.5438 -13.1387  20.5250   C.3       1 PPX907   0.0000
    11 C16     20.4747 -14.2106  21.0743   C.3       1 PPX907   0.0000
    12 C13     19.5654 -15.2362  21.6451   C.3       1 PPX907   0.0000
    13 N19     16.2597 -11.9869  20.9515   N.am      1 PPX907   0.0000
    14 C20     14.9538 -11.7850  20.3145   C.3       1 PPX907   0.0000
    15 C30     14.0074 -11.0362  21.2067   C.2       1 PPX907   0.0000
    16 N27     13.1288 -11.9775  21.8019   N.2       1 PPX907   0.0000
    17 C21     12.3266 -11.6454  22.8074   C.ar      1 PPX907   0.0000
    18 C22     11.4093 -12.6023  23.2027   C.ar      1 PPX907   0.0000
    19 C23     10.5583 -12.3458  24.2808   C.ar      1 PPX907   0.0000
    20 N24     10.6328 -11.1914  24.9421   N.ar      1 PPX907   0.0000
    21 C25     11.5151 -10.2373  24.5777   C.ar      1 PPX907   0.0000
    22 C26     12.3880 -10.4407  23.5083   C.ar      1 PPX907   0.0000
    23 H1      16.3429 -17.0635  22.7116   H         1 PPX907   0.0000
    24 H2      16.6462 -17.8287  24.1502   H         1 PPX907   0.0000
    25 H3      18.6453 -16.6827  23.3729   H         1 PPX907   0.0000
    26 H4      20.0400 -12.1694  20.5123   H         1 PPX907   0.0000
    27 H5      19.2181 -13.3930  19.5174   H         1 PPX907   0.0000
    28 H6      19.1812 -15.8992  20.8713   H         1 PPX907   0.0000
    29 H7      20.0654 -15.8253  22.4124   H         1 PPX907   0.0000
    30 H8      16.5997 -11.2706  21.5851   H         1 PPX907   0.0000
    31 H9      14.5222 -12.7569  20.0797   H         1 PPX907   0.0000
    32 H10     15.0941 -11.2185  19.3951   H         1 PPX907   0.0000
    33 H11     13.9970  -9.9593  21.3686   H         1 PPX907   0.0000
    34 H12     18.2009 -16.8844  25.8352   H         1 PPX907   0.0000
    35 H13     19.0273 -15.3586  25.4457   H         1 PPX907   0.0000
    36 H14     17.2804 -15.3639  25.7784   H         1 PPX907   0.0000
    37 H15     18.4239 -12.2854  22.1912   H         1 PPX907   0.0000
    38 H16     21.1230 -13.7986  21.8462   H         1 PPX907   0.0000
    39 H17     21.0835 -14.6364  20.2781   H         1 PPX907   0.0000
    40 H18     11.5462  -9.2966  25.1255   H         1 PPX907   0.0000
    41 H19     13.1053  -9.6717  23.2254   H         1 PPX907   0.0000
    42 H20     11.3506 -13.5532  22.6751   H         1 PPX907   0.0000
    43 H21      9.8283 -13.0953  24.5830   H         1 PPX907   0.0000
@<TRIPOS>BOND
     1     1     2    1
     2     2     3    1
     3     2     5    1
     4     3     4    2
     5     3     6   am
     6     6     7    1
     7     6    12    1
     8     7     8    1
     9     7    10    1
    10     8     9    2
    11     8    13   am
    12    10    11    1
    13    11    12    1
    14    13    14    1
    15    14    15    1
    16    15    16    2
    17    16    17    1
    18    17    18   ar
    19    17    22   ar
    20    18    19   ar
    21    19    20   ar
    22    20    21   ar
    23    21    22   ar
    24     1    23    1
    25     1    24    1
    26     2    25    1
    27    10    26    1
    28    10    27    1
    29    12    28    1
    30    12    29    1
    31    13    30    1
    32    14    31    1
    33    14    32    1
    34    15    33    1
    35     5    34    1
    36     5    35    1
    37     5    36    1
    38     7    37    1
    39    11    38    1
    40    11    39    1
    41    21    40    1
    42    22    41    1
    43    18    42    1
    44    19    43    1
@<TRIPOS>SUBSTRUCTURE
     1 PPX907      1 GROUP             0 H     PPX     0  
@<TRIPOS>MOLECULE
H:PPX907
    14    14     1     0     0
SMALL
NO_CHARGES
****
Generated from the CSD

@<TRIPOS>ATOM
     1 C4      22.2182 -14.7458  25.6654   C.2       1 PPX907   0.0000
     2 C5      19.8934 -14.3306  26.1466   C.3       1 PPX907   0.0000
     3 C6      20.5531 -16.3951  25.1721   C.3       1 PPX907   0.0000
     4 C7      21.2180 -13.9240  26.1830   C.2       1 PPX907   0.0000
     5 C8      21.8898 -15.9965  25.2046   C.2       1 PPX907   0.0000
     6 C9      22.2122 -14.7375  25.7093   C.2       1 PPX907   0.0000
     7 H1      19.9885 -15.7198  24.5309   H         1 PPX907   0.0000
     8 H2      20.4861 -17.4089  24.7801   H         1 PPX907   0.0000
     9 H3      20.1416 -16.3676  26.1800   H         1 PPX907   0.0000
    10 H4      23.2498 -14.3990  25.6270   H         1 PPX907   0.0000
    11 H5      19.7833 -15.2592  26.7047   H         1 PPX907   0.0000
    12 H6      19.2653 -13.5616  26.5937   H         1 PPX907   0.0000
    13 H7      19.5910 -14.4904  25.1127   H         1 PPX907   0.0000
    14 H8      23.2484 -14.4032  25.7267   H         1 PPX907   0.0000
@<TRIPOS>BOND
     1     1     4    1
     2     1     5    2
     3     2     4    1
     4     3     5    1
     5     4     6    2
     6     5     6    1
     7     3     7    1
     8     3     8    1
     9     3     9    1
    10     1    10    1
    11     2    11    1
    12     2    12    1
    13     2    13    1
    14     6    14    1
@<TRIPOS>SUBSTRUCTURE
     1 PPX907      1 GROUP             0 H     PPX     0  
@<TRIPOS>MOLECULE
H:BAI410
    37    40     1     0     0
SMALL
USER_CHARGES
****
Generated from the CSD

@<TRIPOS>ATOM
     1 C1      12.0393 -11.8301  23.1669   C.ar      1 BAI410   0.0000
     2 C2      12.4935 -10.6357  22.5523   C.ar      1 BAI410   0.0000
     3 C3      13.4912 -10.6313  21.5746   C.ar      1 BAI410   0.0000
     4 C4      14.0019 -11.8631  21.2433   C.ar      1 BAI410   0.0000
     5 C5      13.5842 -13.0049  21.8132   C.ar      1 BAI410   0.0000
     6 C6      12.6105 -13.0534  22.7710   C.ar      1 BAI410   0.0000
     7 C7      11.0816 -11.8194  24.1461   C.2       1 BAI410   0.0000
     8 C8      15.1116 -13.4740  20.4186   C.2       1 BAI410   0.0000
     9 C9      16.1797 -14.3042  19.5636   C.3       1 BAI410   0.0000
    10 N1      10.4241 -12.9158  24.4165   N.pl3     1 BAI410   1.0000
    11 N2      10.8590 -10.7006  24.7970   N.pl3     1 BAI410   0.0000
    12 N3      14.9376 -12.1777  20.3934   N.2       1 BAI410   0.0000
    13 N4      14.2766 -13.9789  21.2928   N.pl3     1 BAI410   0.0000
    14 C1'     17.2284 -11.5765  14.4025   C.ar      1 BAI410   0.0000
    15 C2'     16.7127 -12.7540  13.8074   C.ar      1 BAI410   0.0000
    16 C3'     16.2817 -13.8445  14.6019   C.ar      1 BAI410   0.0000
    17 C4'     16.3921 -13.6858  15.9735   C.ar      1 BAI410   0.0000
    18 C5'     16.8885 -12.5558  16.5191   C.ar      1 BAI410   0.0000
    19 C6'     17.3241 -11.4646  15.7936   C.ar      1 BAI410   0.0000
    20 C8'     16.3717 -13.8582  18.0795   C.2       1 BAI410   0.0000
    21 N3'     16.0769 -14.4921  16.9622   N.pl3     1 BAI410   0.0000
    22 N4'     16.8640 -12.6953  17.8058   N.2       1 BAI410   0.0000
    23 H1      12.2907 -13.9979  23.2088   H         1 BAI410   0.0000
    24 H2      13.8409  -9.7126  21.1061   H         1 BAI410   0.0000
    25 H3      10.1540 -10.6696  25.5266   H         1 BAI410   0.0000
    26 H4      11.3919  -9.8670  24.5705   H         1 BAI410   0.0000
    27 H5       9.7130 -12.9156  25.1408   H         1 BAI410   0.0000
    28 H6      10.6245 -13.7677  23.9023   H         1 BAI410   0.0000
    29 H7      15.8638 -15.3464  19.5591   H         1 BAI410   0.0000
    30 H8      17.1436 -14.2193  20.0633   H         1 BAI410   0.0000
    31 H9      12.0488  -9.6883  22.8531   H         1 BAI410   0.0000
    32 H10     15.8856 -14.7572  14.1590   H         1 BAI410   0.0000
    33 H11     15.6824 -15.4237  16.8810   H         1 BAI410   0.0000
    34 H12     17.5534 -10.7508  13.7712   H         1 BAI410   0.0000
    35 H13     17.7182 -10.5709  16.2753   H         1 BAI410   0.0000
    36 H14     14.1844 -14.9626  21.5255   H         1 BAI410   0.0000
    37 H15     16.6466 -12.8218  12.7225   H         1 BAI410   0.0000
@<TRIPOS>BOND
     1     1     2   ar
     2     1     6   ar
     3     1     7    1
     4     2     3   ar
     5     3     4   ar
     6     4     5   ar
     7     4    12    1
     8     5     6   ar
     9     5    13    1
    10     7    10    2
    11     7    11    1
    12     8     9    1
    13     8    12    2
    14     8    13    1
    15     9    20    1
    16    14    15   ar
    17    14    19   ar
    18    15    16   ar
    19    16    17   ar
    20    17    18   ar
    21    17    21    1
    22    18    19   ar
    23    18    22    1
    24    20    21    1
    25    20    22    2
    26     6    23    1
    27     3    24    1
    28    11    25    1
    29    11    26    1
    30    10    27    1
    31    10    28    1
    32     9    29    1
    33     9    30    1
    34     2    31    1
    35    16    32    1
    36    21    33    1
    37    14    34    1
    38    19    35    1
    39    13    36    1
    40    15    37    1
@<TRIPOS>SUBSTRUCTURE
     1 BAI410      1 GROUP             0 H     BAI     0  
@<TRIPOS>MOLECULE
H:14A1411
    56    57     1     0     0
SMALL
NO_CHARGES
****
Generated from the CSD

@<TRIPOS>ATOM
     1 N1      10.3009 -12.9457  24.5430   N.pl3     1 14A1411   0.0000
     2 C2      11.1138 -11.9654  24.1825   C.2       1 14A1411   0.0000
     3 N3      10.9703 -10.7424  24.6793   N.pl3     1 14A1411   0.0000
     4 N4      12.0261 -12.1835  23.2671   N.2       1 14A1411   0.0000
     5 O5      13.0045 -11.3161  22.9801   O.3       1 14A1411   0.0000
     6 C6      12.9444 -10.7411  21.6552   C.3       1 14A1411   0.0000
     7 C7      13.5116 -11.7272  20.6090   C.3       1 14A1411   0.0000
     8 C8      15.0104 -11.9128  20.7171   C.3       1 14A1411   0.0000
     9 O9      15.2310 -12.9440  21.6733   O.3       1 14A1411   0.0000
    10 C10     16.5111 -13.4759  21.6903   C.ar      1 14A1411   0.0000
    11 C11     17.5436 -12.9669  20.8861   C.ar      1 14A1411   0.0000
    12 C12     18.8299 -13.5575  20.9584   C.ar      1 14A1411   0.0000
    13 C13     19.0525 -14.6083  21.7926   C.ar      1 14A1411   0.0000
    14 C14     18.0550 -15.0922  22.5807   C.ar      1 14A1411   0.0000
    15 C15     16.7858 -14.5544  22.5396   C.ar      1 14A1411   0.0000
    16 CL16    20.1150 -12.9702  20.0217   Cl        1 14A1411   0.0000
    17 C17     18.3490 -16.2476  23.4594   C.2       1 14A1411   0.0000
    18 O18     17.5547 -17.1842  23.3637   O.2       1 14A1411   0.0000
    19 N19     19.3488 -16.3170  24.3692   N.am      1 14A1411   0.0000
    20 C20     19.3970 -17.4668  25.3361   C.3       1 14A1411   0.0000
    21 C21     18.1339 -17.8157  26.1376   C.3       1 14A1411   0.0000
    22 C22     18.1254 -18.2784  27.3739   C.3       1 14A1411   0.0000
    23 C23     19.8707 -14.9721  24.7220   C.3       1 14A1411   0.0000
    24 C24     21.3932 -15.1087  24.6029   C.3       1 14A1411   0.0000
    25 C25     22.0654 -14.4931  25.7683   C.3       1 14A1411   0.0000
    26 C26     21.0017 -14.3808  26.8474   C.3       1 14A1411   0.0000
    27 C27     19.7113 -14.8720  26.2406   C.3       1 14A1411   0.0000
    28 H1      13.2804 -11.3481  19.6146   H         1 14A1411   0.0000
    29 H2      13.0319 -12.6947  20.7492   H         1 14A1411   0.0000
    30 H3      15.9980 -14.9683  23.1673   H         1 14A1411   0.0000
    31 H4      21.7268 -14.6111  23.6935   H         1 14A1411   0.0000
    32 H5      21.6549 -16.1647  24.5557   H         1 14A1411   0.0000
    33 H6      17.6108 -18.5640  25.5439   H         1 14A1411   0.0000
    34 H7      17.5460 -16.8994  26.1665   H         1 14A1411   0.0000
    35 H8      18.6037 -17.5570  28.0348   H         1 14A1411   0.0000
    36 H9      17.0971 -18.4383  27.6947   H         1 14A1411   0.0000
    37 H10     18.6685 -19.2215  27.4123   H         1 14A1411   0.0000
    38 H11     15.4794 -10.9876  21.0490   H         1 14A1411   0.0000
    39 H12     15.4225 -12.2026  19.7517   H         1 14A1411   0.0000
    40 H13     22.4478 -13.5071  25.5085   H         1 14A1411   0.0000
    41 H14     22.8862 -15.1225  26.1089   H         1 14A1411   0.0000
    42 H15     19.4692 -15.8532  26.6462   H         1 14A1411   0.0000
    43 H16     18.9096 -14.1737  26.4767   H         1 14A1411   0.0000
    44 H17     17.3583 -12.1292  20.2154   H         1 14A1411   0.0000
    45 H18     20.0395 -15.0670  21.8301   H         1 14A1411   0.0000
    46 H19     19.4370 -14.1475  24.1582   H         1 14A1411   0.0000
    47 H20     13.5300  -9.8231  21.6364   H         1 14A1411   0.0000
    48 H21     11.9077 -10.5155  21.4095   H         1 14A1411   0.0000
    49 H22     20.1822 -17.2453  26.0574   H         1 14A1411   0.0000
    50 H23     19.6682 -18.3535  24.7650   H         1 14A1411   0.0000
    51 H24     20.8965 -13.3440  27.1635   H         1 14A1411   0.0000
    52 H25     21.2709 -14.9961  27.7046   H         1 14A1411   0.0000
    53 H26     10.4234 -13.8754  24.1544   H         1 14A1411   0.0000
    54 H27      9.5550 -12.7679  25.2080   H         1 14A1411   0.0000
    55 H28     11.6017 -10.0010  24.3931   H         1 14A1411   0.0000
    56 H29     10.2292 -10.5489  25.3453   H         1 14A1411   0.0000
@<TRIPOS>BOND
     1     1     2    1
     2     2     3    1
     3     2     4    2
     4     4     5    1
     5     5     6    1
     6     6     7    1
     7     7     8    1
     8     8     9    1
     9     9    10    1
    10    10    11   ar
    11    10    15   ar
    12    11    12   ar
    13    12    13   ar
    14    12    16    1
    15    13    14   ar
    16    14    15   ar
    17    14    17    1
    18    17    18    2
    19    17    19   am
    20    19    20    1
    21    19    23    1
    22    20    21    1
    23    21    22    1
    24    23    24    1
    25    23    27    1
    26    24    25    1
    27    25    26    1
    28    26    27    1
    29     7    28    1
    30     7    29    1
    31    15    30    1
    32    24    31    1
    33    24    32    1
    34    21    33    1
    35    21    34    1
    36    22    35    1
    37    22    36    1
    38    22    37    1
    39     8    38    1
    40     8    39    1
    41    25    40    1
    42    25    41    1
    43    27    42    1
    44    27    43    1
    45    11    44    1
    46    13    45    1
    47    23    46    1
    48     6    47    1
    49     6    48    1
    50    20    49    1
    51    20    50    1
    52    26    51    1
    53    26    52    1
    54     1    53    1
    55     1    54    1
    56     3    55    1
    57     3    56    1
@<TRIPOS>SUBSTRUCTURE
     1 14A1411     1 GROUP             0 H     14A     0  
@<TRIPOS>MOLECULE
B:C021
    52    55     1     0     0
SMALL
USER_CHARGES
****
Generated from the CSD

@<TRIPOS>ATOM
     1 N1      10.4645 -10.6460  24.9179   N.pl3     1 C021   1.0000
     2 C2      10.7084 -11.6702  24.0679   C.2       1 C021   0.0000
     3 N3       9.8401 -12.7078  24.0156   N.pl3     1 C021   0.0000
     4 C4      11.9093 -11.6781  23.2564   C.ar      1 C021   0.0000
     5 C5      12.7429 -10.5609  23.2301   C.ar      1 C021   0.0000
     6 C6      13.9109 -10.5604  22.4655   C.ar      1 C021   0.0000
     7 C7      14.2562 -11.6882  21.7134   C.ar      1 C021   0.0000
     8 C8      13.4176 -12.8103  21.7348   C.ar      1 C021   0.0000
     9 C9      12.2467 -12.8048  22.5043   C.ar      1 C021   0.0000
    10 C10     15.5302 -11.6873  20.9049   C.3       1 C021   0.0000
    11 C11     16.5143 -12.7133  21.4499   C.2       1 C021   0.0000
    12 N12     16.1861 -13.7292  22.2542   N.2       1 C021   0.0000
    13 C13     17.2905 -14.4276  22.5368   C.ar      1 C021   0.0000
    14 C14     18.3493 -13.8140  21.8775   C.ar      1 C021   0.0000
    15 N15     17.8444 -12.7593  21.2159   N.pl3     1 C021   0.0000
    16 C16     18.6045 -11.8140  20.3787   C.3       1 C021   0.0000
    17 C17     19.6344 -14.3491  22.0051   C.ar      1 C021   0.0000
    18 C18     19.8578 -15.5019  22.7931   C.ar      1 C021   0.0000
    19 C19     18.7940 -16.1056  23.4423   C.ar      1 C021   0.0000
    20 C20     17.5070 -15.5575  23.3086   C.ar      1 C021   0.0000
    21 N21     18.9727 -17.1132  24.3762   N.pl3     1 C021   0.0000
    22 S22     19.3364 -16.8596  26.0658   S.o2      1 C021   0.0000
    23 C23     20.5292 -15.6097  26.1699   C.ar      1 C021   0.0000
    24 C24     21.8002 -15.8337  25.6341   C.ar      1 C021   0.0000
    25 C25     22.7712 -14.8303  25.6978   C.ar      1 C021   0.0000
    26 C26     22.4684 -13.6079  26.2953   C.ar      1 C021   0.0000
    27 C27     21.1974 -13.3848  26.8300   C.ar      1 C021   0.0000
    28 C28     20.2283 -14.3862  26.7653   C.ar      1 C021   0.0000
    29 O29     18.1387 -16.4786  26.7674   O.2       1 C021   0.0000
    30 O30     19.8599 -18.0376  26.6913   O.2       1 C021   0.0000
    31 H1      14.5536  -9.6814  22.4546   H         1 C021   0.0000
    32 H2      12.4800  -9.6790  23.8123   H         1 C021   0.0000
    33 H3      20.8616 -15.9129  22.8889   H         1 C021   0.0000
    34 H4      16.6677 -16.0277  23.8190   H         1 C021   0.0000
    35 H5      18.8856 -18.0718  24.0541   H         1 C021   0.0000
    36 H6      22.0339 -16.7894  25.1673   H         1 C021   0.0000
    37 H7      18.5025 -10.8080  20.7830   H         1 C021   0.0000
    38 H8      19.6557 -12.0982  20.3732   H         1 C021   0.0000
    39 H9      18.2168 -11.8374  19.3613   H         1 C021   0.0000
    40 H10     23.7625 -15.0033  25.2815   H         1 C021   0.0000
    41 H11     10.0121 -13.4820  23.3820   H         1 C021   0.0000
    42 H12      9.0174 -12.7116  24.6099   H         1 C021   0.0000
    43 H13     23.2240 -12.8253  26.3452   H         1 C021   0.0000
    44 H14     11.5992 -13.6803  22.5157   H         1 C021   0.0000
    45 H15     13.6773 -13.6916  21.1501   H         1 C021   0.0000
    46 H16     15.9828 -10.6979  20.9520   H         1 C021   0.0000
    47 H17     15.2967 -11.9308  19.8695   H         1 C021   0.0000
    48 H18     11.1079  -9.8625  24.9662   H         1 C021   0.0000
    49 H19      9.6383 -10.6613  25.5072   H         1 C021   0.0000
    50 H20     20.4704 -13.8743  21.4936   H         1 C021   0.0000
    51 H21     20.9631 -12.4295  27.2973   H         1 C021   0.0000
    52 H22     19.2367 -14.2118  27.1802   H         1 C021   0.0000
@<TRIPOS>BOND
     1     1     2    2
     2     2     3    1
     3     2     4    1
     4     4     5   ar
     5     4     9   ar
     6     5     6   ar
     7     6     7   ar
     8     7     8   ar
     9     7    10    1
    10     8     9   ar
    11    10    11    1
    12    11    12    2
    13    11    15    1
    14    12    13    1
    15    13    14   ar
    16    13    20   ar
    17    14    15    1
    18    14    17   ar
    19    15    16    1
    20    17    18   ar
    21    18    19   ar
    22    19    20   ar
    23    19    21    1
    24    21    22    1
    25    22    23    1
    26    22    29    2
    27    22    30    2
    28    23    24   ar
    29    23    28   ar
    30    24    25   ar
    31    25    26   ar
    32    26    27   ar
    33    27    28   ar
    34     6    31    1
    35     5    32    1
    36    18    33    1
    37    20    34    1
    38    21    35    1
    39    24    36    1
    40    16    37    1
    41    16    38    1
    42    16    39    1
    43    25    40    1
    44     3    41    1
    45     3    42    1
    46    26    43    1
    47     9    44    1
    48     8    45    1
    49    10    46    1
    50    10    47    1
    51     1    48    1
    52     1    49    1
    53    17    50    1
    54    27    51    1
    55    28    52    1
@<TRIPOS>SUBSTRUCTURE
     1 C021        1 GROUP             0 B     C02     0  
@<TRIPOS>MOLECULE
B:C7M1249
    64    67     1     0     0
SMALL
NO_CHARGES
****
Generated from the CSD

@<TRIPOS>ATOM
     1 C1      24.4044 -13.9860  24.4702   C.3       1 C7M1249   0.0000
     2 O2      23.2898 -13.6205  25.2868   O.3       1 C7M1249   0.0000
     3 C3      22.1141 -14.3195  25.1941   C.ar      1 C7M1249   0.0000
     4 C4      21.0835 -13.9634  26.0490   C.ar      1 C7M1249   0.0000
     5 C5      19.8890 -14.6201  26.0218   C.ar      1 C7M1249   0.0000
     6 C6      19.7065 -15.6691  25.1400   C.ar      1 C7M1249   0.0000
     7 C7      20.7222 -16.0405  24.2812   C.ar      1 C7M1249   0.0000
     8 C8      21.9255 -15.3657  24.3082   C.ar      1 C7M1249   0.0000
     9 S9      18.2003 -16.5577  25.0771   S.o2      1 C7M1249   0.0000
    10 O10     18.5843 -17.9294  25.0619   O.2       1 C7M1249   0.0000
    11 O11     17.3460 -15.9590  26.0383   O.2       1 C7M1249   0.0000
    12 N12     17.6025 -16.3026  23.5480   N.pl3     1 C7M1249   0.0000
    13 C13     17.1685 -14.9407  23.2261   C.3       1 C7M1249   0.0000
    14 C14     16.6612 -14.8795  21.7790   C.3       1 C7M1249   0.0000
    15 O16     15.5247 -15.7331  21.6718   O.3       1 C7M1249   0.0000
    16 C17     16.2276 -13.4614  21.3706   C.3       1 C7M1249   0.0000
    17 C19     17.4076 -12.4889  21.3958   C.3       1 C7M1249   0.0000
    18 C20     18.5234 -12.9243  20.4869   C.ar      1 C7M1249   0.0000
    19 C21     19.7715 -13.2134  21.0100   C.ar      1 C7M1249   0.0000
    20 C22     20.7925 -13.6065  20.1694   C.ar      1 C7M1249   0.0000
    21 C23     20.5784 -13.7013  18.8056   C.ar      1 C7M1249   0.0000
    22 C24     19.3254 -13.4164  18.2815   C.ar      1 C7M1249   0.0000
    23 C25     18.2963 -13.0223  19.1251   C.ar      1 C7M1249   0.0000
    24 N26     15.1549 -12.9626  22.2611   N.3       1 C7M1249   0.0000
    25 C29     14.3626 -11.8662  21.5917   C.3       1 C7M1249   0.0000
    26 C30     13.1667 -11.5593  22.4676   C.ar      1 C7M1249   0.0000
    27 C31     13.1791 -10.4184  23.2691   C.ar      1 C7M1249   0.0000
    28 C32     12.1069 -10.1491  24.1137   C.ar      1 C7M1249   0.0000
    29 CL33    12.1125  -8.7195  25.1075   Cl        1 C7M1249   0.0000
    30 C34     11.0354 -11.0322  24.1650   C.ar      1 C7M1249   0.0000
    31 C35     11.0271 -12.1818  23.3866   C.ar      1 C7M1249   0.0000
    32 C36     12.0983 -12.4512  22.5440   C.ar      1 C7M1249   0.0000
    33 N37     12.0461 -13.5998  21.7255   N.pl3     1 C7M1249   0.0000
    34 C38     12.0973 -14.9071  22.0598   C.2       1 C7M1249   0.0000
    35 N39     11.9821 -15.5952  20.9498   N.2       1 C7M1249   0.0000
    36 N40     11.8454 -14.8195  19.9361   N.2       1 C7M1249   0.0000
    37 N41     11.8896 -13.5941  20.3259   N.2       1 C7M1249   0.0000
    38 H1      20.5739 -16.8640  23.5842   H         1 C7M1249   0.0000
    39 H2      24.1289 -13.8996  23.4202   H         1 C7M1249   0.0000
    40 H3      25.2421 -13.3230  24.6814   H         1 C7M1249   0.0000
    41 H4      24.6915 -15.0139  24.6868   H         1 C7M1249   0.0000
    42 H5      22.7277 -15.6568  23.6316   H         1 C7M1249   0.0000
    43 H6      17.5408 -17.0545  22.8690   H         1 C7M1249   0.0000
    44 H7      21.2300 -13.1462  26.7537   H         1 C7M1249   0.0000
    45 H8      19.0836 -14.3201  26.6906   H         1 C7M1249   0.0000
    46 H9      17.4424 -15.2286  21.1054   H         1 C7M1249   0.0000
    47 H10     10.1843 -12.8696  23.4363   H         1 C7M1249   0.0000
    48 H11     21.3913 -13.9990  18.1450   H         1 C7M1249   0.0000
    49 H12     17.3135 -12.7911  18.7170   H         1 C7M1249   0.0000
    50 H13     14.0276 -12.1976  20.6100   H         1 C7M1249   0.0000
    51 H14     14.9805 -10.9760  21.4830   H         1 C7M1249   0.0000
    52 H15     12.2125 -15.3137  23.0634   H         1 C7M1249   0.0000
    53 H16     18.0084 -14.2574  23.3430   H         1 C7M1249   0.0000
    54 H17     16.3662 -14.6486  23.9021   H         1 C7M1249   0.0000
    55 H18     17.7889 -12.4269  22.4140   H         1 C7M1249   0.0000
    56 H19     17.0595 -11.5072  21.0781   H         1 C7M1249   0.0000
    57 H20     19.9472 -13.1309  22.0816   H         1 C7M1249   0.0000
    58 H21     19.1500 -13.5018  17.2101   H         1 C7M1249   0.0000
    59 H22     15.5722 -12.5986  23.1118   H         1 C7M1249   0.0000
    60 H23     14.0285  -9.7379  23.2340   H         1 C7M1249   0.0000
    61 H24     21.7723 -13.8434  20.5815   H         1 C7M1249   0.0000
    62 H25     14.8174 -15.4225  22.2958   H         1 C7M1249   0.0000
    63 H26     15.8383 -13.5015  20.3544   H         1 C7M1249   0.0000
    64 H27     10.1935 -10.8205  24.8225   H         1 C7M1249   0.0000
@<TRIPOS>BOND
     1     1     2    1
     2     2     3    1
     3     3     4   ar
     4     3     8   ar
     5     4     5   ar
     6     5     6   ar
     7     6     7   ar
     8     6     9    1
     9     7     8   ar
    10     9    10    2
    11     9    11    2
    12     9    12    1
    13    12    13    1
    14    13    14    1
    15    14    15    1
    16    14    16    1
    17    16    17    1
    18    16    24    1
    19    17    18    1
    20    18    19   ar
    21    18    23   ar
    22    19    20   ar
    23    20    21   ar
    24    21    22   ar
    25    22    23   ar
    26    24    25    1
    27    25    26    1
    28    26    27   ar
    29    26    32   ar
    30    27    28   ar
    31    28    29    1
    32    28    30   ar
    33    30    31   ar
    34    31    32   ar
    35    32    33    1
    36    33    34    1
    37    33    37    1
    38    34    35    2
    39    35    36    1
    40    36    37    2
    41     7    38    1
    42     1    39    1
    43     1    40    1
    44     1    41    1
    45     8    42    1
    46    12    43    1
    47     4    44    1
    48     5    45    1
    49    14    46    1
    50    31    47    1
    51    21    48    1
    52    23    49    1
    53    25    50    1
    54    25    51    1
    55    34    52    1
    56    13    53    1
    57    13    54    1
    58    17    55    1
    59    17    56    1
    60    19    57    1
    61    22    58    1
    62    24    59    1
    63    27    60    1
    64    20    61    1
    65    15    62    1
    66    16    63    1
    67    30    64    1
@<TRIPOS>SUBSTRUCTURE
     1 C7M1249     1 GROUP             0 B     C7M     0  
@<TRIPOS>MOLECULE
H:PRL280
    27    29     1     0     0
SMALL
NO_CHARGES
****
Generated from the CSD

@<TRIPOS>ATOM
     1 C1      13.2211 -10.7973  22.0624   C.ar      1 PRL280   0.0000
     2 C2      12.5296 -10.3228  23.0976   C.ar      1 PRL280   0.0000
     3 C3      11.5372 -11.1183  23.7853   C.ar      1 PRL280   0.0000
     4 C4      11.3063 -12.4020  23.3279   C.ar      1 PRL280   0.0000
     5 C5      12.2894 -16.1356  20.4878   C.ar      1 PRL280   0.0000
     6 C6      13.0015 -16.7538  19.4750   C.ar      1 PRL280   0.0000
     7 C7      14.0080 -15.9794  18.7796   C.ar      1 PRL280   0.0000
     8 C8      14.2561 -14.7061  19.0911   C.ar      1 PRL280   0.0000
     9 C9      13.7385 -12.7206  20.5404   C.ar      1 PRL280   0.0000
    10 N10     11.8332 -14.2118  21.8428   N.ar      1 PRL280   0.0000
    11 C11     12.0160 -12.9127  22.2620   C.ar      1 PRL280   0.0000
    12 C12     13.5297 -14.0325  20.1473   C.ar      1 PRL280   0.0000
    13 C13     13.0196 -12.1392  21.5716   C.ar      1 PRL280   0.0000
    14 C14     12.5312 -14.8221  20.8249   C.ar      1 PRL280   0.0000
    15 N15     10.9246 -10.6347  24.8896   N.pl3     1 PRL280   0.0000
    16 N16     12.7855 -18.0491  19.1487   N.pl3     1 PRL280   0.0000
    17 H1      10.2282 -11.1954  25.3703   H         1 PRL280   0.0000
    18 H2      11.1611  -9.7112  25.2379   H         1 PRL280   0.0000
    19 H3      13.9555 -10.1575  21.5752   H         1 PRL280   0.0000
    20 H4      14.5786 -16.4494  17.9799   H         1 PRL280   0.0000
    21 H5      14.4913 -12.1280  20.0225   H         1 PRL280   0.0000
    22 H6      13.3207 -18.4803  18.4018   H         1 PRL280   0.0000
    23 H7      12.0884 -18.5895  19.6509   H         1 PRL280   0.0000
    24 H8      11.5265 -16.6959  21.0263   H         1 PRL280   0.0000
    25 H9      15.0211 -14.1617  18.5393   H         1 PRL280   0.0000
    26 H10     12.7177  -9.3050  23.4362   H         1 PRL280   0.0000
    27 H11     10.5533 -13.0186  23.8164   H         1 PRL280   0.0000
@<TRIPOS>BOND
     1     1     2   ar
     2     1    13   ar
     3     2     3   ar
     4     3     4   ar
     5     3    15    1
     6     4    11   ar
     7     5     6   ar
     8     5    14   ar
     9     6     7   ar
    10     6    16    1
    11     7     8   ar
    12     8    12   ar
    13     9    12   ar
    14     9    13   ar
    15    10    11   ar
    16    10    14   ar
    17    11    13   ar
    18    12    14   ar
    19    15    17    1
    20    15    18    1
    21     1    19    1
    22     7    20    1
    23     9    21    1
    24    16    22    1
    25    16    23    1
    26     5    24    1
    27     8    25    1
    28     2    26    1
    29     4    27    1
@<TRIPOS>SUBSTRUCTURE
     1 PRL280      1 GROUP             0 H     PRL     0  
@<TRIPOS>MOLECULE
H:CIT608
    18    17     1     0     0
SMALL
NO_CHARGES
****
Generated from the CSD

@<TRIPOS>ATOM
     1 C1      31.2848   5.5879  28.1481   C.ar      1 CIT608   0.0000
     2 O1      30.5547   6.5760  28.3890   O.co2     1 CIT608   0.0000
     3 O2      32.2213   5.2360  28.9082   O.co2     1 CIT608   0.0000
     4 C2      31.0191   4.7967  26.8850   C.3       1 CIT608   0.0000
     5 C3      32.1914   3.8706  26.5568   C.3       1 CIT608   0.0000
     6 O7      32.3839   3.8313  25.1344   O.3       1 CIT608   0.0000
     7 C4      33.4888   4.3473  27.1950   C.3       1 CIT608   0.0000
     8 C5      33.9404   5.5848  26.4637   C.ar      1 CIT608   0.0000
     9 O3      33.5823   5.7423  25.2606   O.co2     1 CIT608   0.0000
    10 O4      34.6447   6.3920  27.1141   O.co2     1 CIT608   0.0000
    11 C6      31.9116   2.4757  27.0624   C.ar      1 CIT608   0.0000
    12 O5      31.0684   2.3171  27.9719   O.co2     1 CIT608   0.0000
    13 O6      32.5463   1.5318  26.5469   O.co2     1 CIT608   0.0000
    14 H1      30.8699   5.4883  26.0572   H         1 CIT608   0.0000
    15 H2      30.1206   4.1972  27.0236   H         1 CIT608   0.0000
    16 H3      32.5806   4.7460  24.8016   H         1 CIT608   0.0000
    17 H4      34.2484   3.5713  27.1122   H         1 CIT608   0.0000
    18 H5      33.3203   4.5796  28.2455   H         1 CIT608   0.0000
@<TRIPOS>BOND
     1     1     2   ar
     2     1     3   ar
     3     1     4    1
     4     4     5    1
     5     5     6    1
     6     5     7    1
     7     5    11    1
     8     7     8    1
     9     8     9   ar
    10     8    10   ar
    11    11    12   ar
    12    11    13   ar
    13     4    14    1
    14     4    15    1
    15     6    16    1
    16     7    17    1
    17     7    18    1
@<TRIPOS>SUBSTRUCTURE
     1 CIT608      1 GROUP             0 H     CIT     0  
@<TRIPOS>MOLECULE
H:00K372
    81    84     1     0     0
SMALL
USER_CHARGES
****
Generated from the CSD

@<TRIPOS>ATOM
     1 C1      18.0880 -13.0194  21.4106   C.3       1 00K372   0.0000
     2 N1      19.1220 -15.2136  21.2042   N.3       1 00K372   0.0000
     3 O1      16.2629 -14.2658  23.1540   O.2       1 00K372   0.0000
     4 C2      19.1338 -13.0501  20.3276   C.3       1 00K372   0.0000
     5 N2      18.0441 -14.4833  21.8101   N.am      1 00K372   0.0000
     6 O2      16.7100 -13.9660  19.6045   O.2       1 00K372   0.0000
     7 C3      20.1106 -14.1870  20.8603   C.3       1 00K372   0.0000
     8 N3      16.1077 -16.7045  23.4581   N.3       1 00K372   0.0000
     9 C4      19.6116 -16.4055  21.9232   C.3       1 00K372   0.0000
    10 C5      18.4293 -17.1950  22.5455   C.3       1 00K372   0.0000
    11 C6      17.5180 -16.2935  23.3795   C.3       1 00K372   0.0000
    12 C7      17.3121 -14.8939  22.8175   C.2       1 00K372   0.0000
    13 C8      16.8862 -13.0555  20.5131   C.2       1 00K372   0.0000
    14 C9      17.7225 -16.3663  24.9047   C.3       1 00K372   0.0000
    15 C10     19.0716 -15.9191  25.3493   C.ar      1 00K372   0.0000
    16 C11     19.3497 -14.5654  25.5130   C.ar      1 00K372   0.0000
    17 C12     20.6892 -14.1705  25.8152   C.ar      1 00K372   0.0000
    18 C13     21.7352 -15.0874  25.9543   C.ar      1 00K372   0.0000
    19 C14     21.4147 -16.4608  25.8521   C.ar      1 00K372   0.0000
    20 C15     20.1053 -16.8768  25.5239   C.ar      1 00K372   0.0000
    21 C       14.7125 -10.9741  18.4690   C.3       1 00K372   0.0000
    22 N       15.8880 -12.0909  20.5261   N.am      1 00K372   0.0000
    23 O       13.5897 -10.7272  17.8394   O.3       1 00K372   0.0000
    24 CA      14.7269 -11.9103  19.6734   C.3       1 00K372   0.0000
    25 CB      13.4315 -11.6367  20.4000   C.2       1 00K372   0.0000
    26 CD      11.8162 -12.2377  22.2271   C.3       1 00K372   0.0000
    27 CE      11.4409 -13.3634  23.1562   C.3       1 00K372   0.0000
    28 CG      13.1190 -12.5180  21.5395   C.2       1 00K372   0.0000
    29 CX      15.5561 -11.4681  17.3048   C.2       1 00K372   0.0000
    30 OX      16.6838 -11.1120  17.4729   O.2       1 00K372   0.0000
    31 NZ      10.3140 -13.1240  24.0448   N.4       1 00K372   1.0000
    32 C1X     15.8518 -12.3836  15.0945   C.3       1 00K372   0.0000
    33 C6X     15.4630 -11.8054  13.7552   C.3       1 00K372   0.0000
    34 C5X     14.3553 -12.6405  13.1272   C.3       1 00K372   0.0000
    35 C4X     14.7959 -14.0767  12.9627   C.3       1 00K372   0.0000
    36 C3X     15.1679 -14.6658  14.3242   C.3       1 00K372   0.0000
    37 C2X     16.2502 -13.8443  15.0195   C.3       1 00K372   0.0000
    38 NX      15.0104 -11.9679  16.2194   N.am      1 00K372   0.0000
    39 H1      18.1489 -12.2581  22.1869   H         1 00K372   0.0000
    40 H2      18.8285 -17.9807  23.1852   H         1 00K372   0.0000
    41 H3      17.8438 -17.6424  21.7436   H         1 00K372   0.0000
    42 H4      22.7571 -14.7568  26.1344   H         1 00K372   0.0000
    43 H5      19.8875 -17.9370  25.4043   H         1 00K372   0.0000
    44 H6      19.6465 -12.0931  20.2428   H         1 00K372   0.0000
    45 H7      18.7012 -13.3168  19.3645   H         1 00K372   0.0000
    46 H8      20.2886 -16.0916  22.7163   H         1 00K372   0.0000
    47 H9      20.1440 -17.0502  21.2254   H         1 00K372   0.0000
    48 H10     17.5805 -17.3984  25.2218   H         1 00K372   0.0000
    49 H11     16.9757 -15.7338  25.3824   H         1 00K372   0.0000
    50 H12     18.5612 -13.8210  25.4128   H         1 00K372   0.0000
    51 H13     22.1874 -17.2076  26.0287   H         1 00K372   0.0000
    52 H14     16.0473 -17.6292  23.8723   H         1 00K372   0.0000
    53 H15     15.5938 -16.0429  24.0312   H         1 00K372   0.0000
    54 H16     20.9043 -13.1106  25.9424   H         1 00K372   0.0000
    55 H17     20.7976 -14.5275  20.0871   H         1 00K372   0.0000
    56 H18     20.6771 -13.8607  21.7312   H         1 00K372   0.0000
    57 H19     14.1076 -12.2286  12.1500   H         1 00K372   0.0000
    58 H20     13.4758 -12.6078  13.7685   H         1 00K372   0.0000
    59 H21     15.9867 -11.3928  21.2564   H         1 00K372   0.0000
    60 H22     12.9409 -10.3158  18.4686   H         1 00K372   0.0000
    61 H23     12.7638 -10.8311  20.0982   H         1 00K372   0.0000
    62 H24      9.4837 -12.9310  23.4938   H         1 00K372   0.0000
    63 H25     10.1555 -13.9458  24.6191   H         1 00K372   0.0000
    64 H26     10.5167 -12.3283  24.6414   H         1 00K372   0.0000
    65 H27     15.6618 -14.1156  12.3035   H         1 00K372   0.0000
    66 H28     13.9827 -14.6564  12.5284   H         1 00K372   0.0000
    67 H29     15.1249 -10.0190  18.7910   H         1 00K372   0.0000
    68 H30     15.5336 -15.6816  14.1810   H         1 00K372   0.0000
    69 H31     14.2802 -14.6851  14.9546   H         1 00K372   0.0000
    70 H32     13.7871 -13.3162  21.8593   H         1 00K372   0.0000
    71 H33     11.9081 -11.3174  22.8020   H         1 00K372   0.0000
    72 H34     11.0358 -12.1205  21.4767   H         1 00K372   0.0000
    73 H35     12.3091 -13.5847  23.7752   H         1 00K372   0.0000
    74 H36     11.2008 -14.2314  22.5440   H         1 00K372   0.0000
    75 H37     16.7977 -11.8869  15.3054   H         1 00K372   0.0000
    76 H38     14.5734 -12.8955  19.2355   H         1 00K372   0.0000
    77 H39     16.3960 -14.2270  16.0286   H         1 00K372   0.0000
    78 H40     17.1803 -13.9325  14.4600   H         1 00K372   0.0000
    79 H41     16.3308 -11.8048  13.0974   H         1 00K372   0.0000
    80 H42     15.1106 -10.7841  13.8922   H         1 00K372   0.0000
    81 H43     14.0020 -12.0665  16.1600   H         1 00K372   0.0000
@<TRIPOS>BOND
     1     1     4    1
     2     1     5    1
     3     1    13    1
     4     2     5    1
     5     2     7    1
     6     2     9    1
     7     3    12    2
     8     4     7    1
     9     5    12   am
    10     6    13    2
    11     8    11    1
    12     9    10    1
    13    10    11    1
    14    11    12    1
    15    11    14    1
    16    13    22   am
    17    14    15    1
    18    15    16   ar
    19    15    20   ar
    20    16    17   ar
    21    17    18   ar
    22    18    19   ar
    23    19    20   ar
    24    21    23    1
    25    21    24    1
    26    21    29    1
    27    22    24    1
    28    24    25    1
    29    25    28    2
    30    26    27    1
    31    26    28    1
    32    27    31    1
    33    29    30    2
    34    29    38   am
    35    32    33    1
    36    32    37    1
    37    32    38    1
    38    33    34    1
    39    34    35    1
    40    35    36    1
    41    36    37    1
    42     1    39    1
    43    10    40    1
    44    10    41    1
    45    18    42    1
    46    20    43    1
    47     4    44    1
    48     4    45    1
    49     9    46    1
    50     9    47    1
    51    14    48    1
    52    14    49    1
    53    16    50    1
    54    19    51    1
    55     8    52    1
    56     8    53    1
    57    17    54    1
    58     7    55    1
    59     7    56    1
    60    34    57    1
    61    34    58    1
    62    22    59    1
    63    23    60    1
    64    25    61    1
    65    31    62    1
    66    31    63    1
    67    31    64    1
    68    35    65    1
    69    35    66    1
    70    21    67    1
    71    36    68    1
    72    36    69    1
    73    28    70    1
    74    26    71    1
    75    26    72    1
    76    27    73    1
    77    27    74    1
    78    32    75    1
    79    24    76    1
    80    37    77    1
    81    37    78    1
    82    33    79    1
    83    33    80    1
    84    38    81    1
@<TRIPOS>SUBSTRUCTURE
     1 00K372      1 GROUP             0 H     00K     0  
@<TRIPOS>MOLECULE
H:0G61
    63    64     1     0     0
SMALL
USER_CHARGES
****
Generated from the CSD

@<TRIPOS>ATOM
     1 N       16.0699 -16.6590  23.5560   N.3       1 0G61   0.0000
     2 CA      17.4805 -16.2088  23.5181   C.3       1 0G61   0.0000
     3 C       17.3847 -14.8179  22.9116   C.2       1 0G61   0.0000
     4 O       16.4734 -14.0772  23.2735   O.2       1 0G61   0.0000
     5 CB      18.1318 -16.3357  24.9070   C.3       1 0G61   0.0000
     6 CG      19.5057 -15.7676  25.0357   C.ar      1 0G61   0.0000
     7 CD1     20.6366 -16.4614  24.5681   C.ar      1 0G61   0.0000
     8 CD2     19.6667 -14.4677  25.5616   C.ar      1 0G61   0.0000
     9 CE1     21.8931 -15.8267  24.7471   C.ar      1 0G61   0.0000
    10 CE2     20.8911 -13.8042  25.6488   C.ar      1 0G61   0.0000
    11 CZ      22.0217 -14.5224  25.2936   C.ar      1 0G61   0.0000
    12 N1      18.2493 -14.5275  21.9709   N.am      1 0G61   0.0000
    13 CA1     18.2137 -13.2059  21.3066   C.3       1 0G61   0.0000
    14 C1      16.8998 -13.0037  20.5697   C.2       1 0G61   0.0000
    15 O1      16.3210 -13.9369  19.9858   O.2       1 0G61   0.0000
    16 CB1     19.4073 -13.1751  20.3852   C.3       1 0G61   0.0000
    17 CG1     20.1025 -14.4998  20.4888   C.3       1 0G61   0.0000
    18 CD      19.3500 -15.3837  21.4816   C.3       1 0G61   0.0000
    19 N2      16.3969 -11.8108  20.5378   N.am      1 0G61   0.0000
    20 CA2     15.1662 -11.4585  19.8008   C.3       1 0G61   0.0000
    21 C2      15.5307 -10.6029  18.5707   C.2       1 0G61   0.0000
    22 O2      14.5958 -10.2458  17.7748   O.2       1 0G61   0.0000
    23 CB2     14.1265 -10.8506  20.7742   C.3       1 0G61   0.0000
    24 CG2     13.6447 -11.8537  21.8361   C.3       1 0G61   0.0000
    25 CD3     12.8324 -11.2219  22.9310   C.3       1 0G61   0.0000
    26 NE      12.0038 -12.2096  23.6526   N.pl3     1 0G61   0.0000
    27 CZ1     11.0028 -11.9847  24.5102   C.cat     1 0G61   0.0000
    28 NH1     10.6091 -10.7609  24.8815   N.pl3     1 0G61   1.0000
    29 NH2     10.2381 -13.0451  24.8806   N.pl3     1 0G61   1.0000
    30 C3      16.7100 -10.1972  18.3298   C.3       1 0G61   0.0000
    31 H1      15.6932 -16.6712  22.6136   H         1 0G61   0.0000
    32 H2      16.0234 -17.5929  23.9510   H         1 0G61   0.0000
    33 H3      20.9553 -12.7690  25.9808   H         1 0G61   0.0000
    34 H4      18.3241 -12.4261  22.0587   H         1 0G61   0.0000
    35 H5      16.8758 -11.0758  21.0484   H         1 0G61   0.0000
    36 H6      14.7435 -12.3894  19.4258   H         1 0G61   0.0000
    37 H7      21.1237 -14.3495  20.8358   H         1 0G61   0.0000
    38 H8      20.1182 -14.9807  19.5118   H         1 0G61   0.0000
    39 H9      13.2659 -10.5141  20.1980   H         1 0G61   0.0000
    40 H10     14.5798  -9.9995  21.2801   H         1 0G61   0.0000
    41 H11     20.5520 -17.4373  24.0923   H         1 0G61   0.0000
    42 H12     14.5170 -12.3278  22.2835   H         1 0G61   0.0000
    43 H13     13.0331 -12.6089  21.3447   H         1 0G61   0.0000
    44 H14     12.1787 -10.4691  22.4928   H         1 0G61   0.0000
    45 H15     13.5089 -10.7469  23.6400   H         1 0G61   0.0000
    46 H16     12.2225 -13.1846  23.4743   H         1 0G61   0.0000
    47 H17      9.8419 -10.6516  25.5370   H         1 0G61   0.0000
    48 H18     11.0778  -9.9418  24.5077   H         1 0G61   0.0000
    49 H19      9.4690 -12.9140  25.5299   H         1 0G61   0.0000
    50 H20     10.4360 -13.9682  24.5080   H         1 0G61   0.0000
    51 H21     18.7792 -13.9498  25.9222   H         1 0G61   0.0000
    52 H22     17.3731 -11.0540  18.2194   H         1 0G61   0.0000
    53 H23     16.7127  -9.6151  17.4095   H         1 0G61   0.0000
    54 H24     17.0552  -9.5748  19.1541   H         1 0G61   0.0000
    55 H25     22.7951 -16.3615  24.4536   H         1 0G61   0.0000
    56 H26     18.0254 -16.8478  22.8248   H         1 0G61   0.0000
    57 H27     18.1836 -17.3946  25.1559   H         1 0G61   0.0000
    58 H28     17.4908 -15.8252  25.6242   H         1 0G61   0.0000
    59 H29     20.0852 -12.3769  20.6840   H         1 0G61   0.0000
    60 H30     19.0794 -13.0082  19.3602   H         1 0G61   0.0000
    61 H31     18.9578 -16.2715  20.9877   H         1 0G61   0.0000
    62 H32     20.0004 -15.6824  22.3023   H         1 0G61   0.0000
    63 H33     23.0097 -14.0862  25.4336   H         1 0G61   0.0000
@<TRIPOS>BOND
     1     1     2    1
     2     2     3    1
     3     2     5    1
     4     3     4    2
     5     3    12   am
     6     5     6    1
     7     6     7   ar
     8     6     8   ar
     9     7     9   ar
    10     8    10   ar
    11     9    11   ar
    12    10    11   ar
    13    12    13    1
    14    12    18    1
    15    13    14    1
    16    13    16    1
    17    14    15    2
    18    14    19   am
    19    16    17    1
    20    17    18    1
    21    19    20    1
    22    20    21    1
    23    20    23    1
    24    21    22    2
    25    21    30    1
    26    23    24    1
    27    24    25    1
    28    25    26    1
    29    26    27    1
    30    27    28   ar
    31    27    29   ar
    32     1    31    1
    33     1    32    1
    34    10    33    1
    35    13    34    1
    36    19    35    1
    37    20    36    1
    38    17    37    1
    39    17    38    1
    40    23    39    1
    41    23    40    1
    42     7    41    1
    43    24    42    1
    44    24    43    1
    45    25    44    1
    46    25    45    1
    47    26    46    1
    48    28    47    1
    49    28    48    1
    50    29    49    1
    51    29    50    1
    52     8    51    1
    53    30    52    1
    54    30    53    1
    55    30    54    1
    56     9    55    1
    57     2    56    1
    58     5    57    1
    59     5    58    1
    60    16    59    1
    61    16    60    1
    62    18    61    1
    63    18    62    1
    64    11    63    1
@<TRIPOS>SUBSTRUCTURE
     1 0G61        1 GROUP             0 H     0G6     0  
@<TRIPOS>MOLECULE
B:M671287
    73    75     1     0     0
SMALL
USER_CHARGES
****
Generated from the CSD

@<TRIPOS>ATOM
     1 C1      12.1097 -16.0860  19.9709   C.3       1 M671287   0.0000
     2 C2      11.9984 -16.9824  21.2062   C.3       1 M671287   0.0000
     3 C3      12.9836 -18.1533  21.1162   C.3       1 M671287   0.0000
     4 N4      14.3691 -17.6610  21.1719   N.am      1 M671287   0.0000
     5 C5      14.9971 -17.3284  22.3180   C.2       1 M671287   0.0000
     6 O6      14.4364 -17.4321  23.4024   O.2       1 M671287   0.0000
     7 C7      16.4212 -16.8460  22.1947   C.3       1 M671287   0.0000
     8 N8      17.0065 -16.5136  23.5149   N.3       1 M671287   0.0000
     9 C9      18.2575 -15.7187  23.4575   C.3       1 M671287   0.0000
    10 C11     18.7901 -15.4222  24.8743   C.3       1 M671287   0.0000
    11 C12     19.0342 -16.7416  25.6275   C.3       1 M671287   0.0000
    12 C13     19.5688 -16.4503  27.0383   C.3       1 M671287   0.0000
    13 C14     20.8907 -15.6704  26.9659   C.3       1 M671287   0.0000
    14 C15     20.6995 -14.3470  26.2115   C.3       1 M671287   0.0000
    15 C16     20.1069 -14.6143  24.8136   C.3       1 M671287   0.0000
    16 C17     17.9275 -14.4308  22.7538   C.2       1 M671287   0.0000
    17 O18     16.8523 -13.8784  22.9949   O.2       1 M671287   0.0000
    18 N19     18.7409 -13.8882  21.8241   N.am      1 M671287   0.0000
    19 C20     20.0168 -14.1892  21.1448   C.3       1 M671287   0.0000
    20 C21     19.7023 -13.1647  20.0479   C.3       1 M671287   0.0000
    21 C22     18.5407 -12.7250  20.9525   C.3       1 M671287   0.0000
    22 C24     17.1517 -12.8802  20.3690   C.2       1 M671287   0.0000
    23 O25     16.8419 -13.9491  19.8815   O.2       1 M671287   0.0000
    24 N26     16.2228 -11.9177  20.5142   N.am      1 M671287   0.0000
    25 C27     14.8810 -12.1534  19.9695   C.3       1 M671287   0.0000
    26 C28     13.9033 -12.0780  21.1057   C.ar      1 M671287   0.0000
    27 C29     13.6252 -13.2141  21.8480   C.ar      1 M671287   0.0000
    28 C30     12.7243 -13.1385  22.8970   C.ar      1 M671287   0.0000
    29 C31     12.1165 -11.9097  23.2136   C.ar      1 M671287   0.0000
    30 C32     12.3995 -10.7637  22.4532   C.ar      1 M671287   0.0000
    31 C33     13.3155 -10.8571  21.4173   C.ar      1 M671287   0.0000
    32 C34     11.1187 -11.8446  24.3120   C.2       1 M671287   0.0000
    33 N35     10.4296 -12.9108  24.6493   N.pl3     1 M671287   1.0000
    34 N36     10.8575 -10.6509  24.9403   N.pl3     1 M671287   0.0000
    35 H1      11.8842 -16.6680  19.0785   H         1 M671287   0.0000
    36 H2      11.4025 -15.2622  20.0553   H         1 M671287   0.0000
    37 H3      13.1216 -15.6899  19.8999   H         1 M671287   0.0000
    38 H4      10.9841 -17.3730  21.2742   H         1 M671287   0.0000
    39 H5      12.2215 -16.3950  22.0956   H         1 M671287   0.0000
    40 H6      16.4388 -15.9561  21.5673   H         1 M671287   0.0000
    41 H7      17.0195 -17.6289  21.7311   H         1 M671287   0.0000
    42 H8      19.0109 -16.2629  22.8900   H         1 M671287   0.0000
    43 H9      12.8279 -18.6823  20.1772   H         1 M671287   0.0000
    44 H10     12.8103 -18.8333  21.9490   H         1 M671287   0.0000
    45 H11     14.8801 -17.5665  20.3000   H         1 M671287   0.0000
    46 H12     17.2065 -17.3827  23.9997   H         1 M671287   0.0000
    47 H13     18.0452 -14.8408  25.4156   H         1 M671287   0.0000
    48 H14     19.7632 -17.3388  25.0818   H         1 M671287   0.0000
    49 H15     18.0977 -17.2922  25.7033   H         1 M671287   0.0000
    50 H16     19.7369 -17.3920  27.5587   H         1 M671287   0.0000
    51 H17     18.8345 -15.8598  27.5843   H         1 M671287   0.0000
    52 H18     13.5764  -9.9688  20.8439   H         1 M671287   0.0000
    53 H19      9.7495 -12.8587  25.4010   H         1 M671287   0.0000
    54 H20     10.5773 -13.7868  24.1583   H         1 M671287   0.0000
    55 H21     19.4054 -13.5908  19.0907   H         1 M671287   0.0000
    56 H22     20.4718 -12.4111  19.8868   H         1 M671287   0.0000
    57 H23     16.4452 -11.0488  20.9894   H         1 M671287   0.0000
    58 H24     14.1110 -14.1589  21.6085   H         1 M671287   0.0000
    59 H25     12.4865 -14.0294  23.4765   H         1 M671287   0.0000
    60 H26     10.1749 -10.6109  25.6904   H         1 M671287   0.0000
    61 H27     11.3472  -9.8091  24.6543   H         1 M671287   0.0000
    62 H28     19.9088 -13.6591  24.3296   H         1 M671287   0.0000
    63 H29     20.8338 -15.1744  24.2272   H         1 M671287   0.0000
    64 H30     18.7059 -11.7696  21.4482   H         1 M671287   0.0000
    65 H31     20.0930 -15.2135  20.7829   H         1 M671287   0.0000
    66 H32     20.8990 -13.9463  21.7353   H         1 M671287   0.0000
    67 H33     11.9076  -9.8175  22.6737   H         1 M671287   0.0000
    68 H34     21.6630 -13.8506  26.1053   H         1 M671287   0.0000
    69 H35     20.0213 -13.7067  26.7737   H         1 M671287   0.0000
    70 H36     21.6337 -16.2738  26.4465   H         1 M671287   0.0000
    71 H37     21.2368 -15.4590  27.9766   H         1 M671287   0.0000
    72 H38     14.8367 -13.1387  19.5078   H         1 M671287   0.0000
    73 H39     14.6443 -11.3934  19.2264   H         1 M671287   0.0000
@<TRIPOS>BOND
     1     1     2    1
     2     2     3    1
     3     3     4    1
     4     4     5   am
     5     5     6    2
     6     5     7    1
     7     7     8    1
     8     8     9    1
     9     9    10    1
    10     9    16    1
    11    10    11    1
    12    10    15    1
    13    11    12    1
    14    12    13    1
    15    13    14    1
    16    14    15    1
    17    16    17    2
    18    16    18   am
    19    18    19    1
    20    18    21    1
    21    19    20    1
    22    20    21    1
    23    21    22    1
    24    22    23    2
    25    22    24   am
    26    24    25    1
    27    25    26    1
    28    26    27   ar
    29    26    31   ar
    30    27    28   ar
    31    28    29   ar
    32    29    30   ar
    33    29    32    1
    34    30    31   ar
    35    32    33    2
    36    32    34    1
    37     1    35    1
    38     1    36    1
    39     1    37    1
    40     2    38    1
    41     2    39    1
    42     7    40    1
    43     7    41    1
    44     9    42    1
    45     3    43    1
    46     3    44    1
    47     4    45    1
    48     8    46    1
    49    10    47    1
    50    11    48    1
    51    11    49    1
    52    12    50    1
    53    12    51    1
    54    31    52    1
    55    33    53    1
    56    33    54    1
    57    20    55    1
    58    20    56    1
    59    24    57    1
    60    27    58    1
    61    28    59    1
    62    34    60    1
    63    34    61    1
    64    15    62    1
    65    15    63    1
    66    21    64    1
    67    19    65    1
    68    19    66    1
    69    30    67    1
    70    14    68    1
    71    14    69    1
    72    13    70    1
    73    13    71    1
    74    25    72    1
    75    25    73    1
@<TRIPOS>SUBSTRUCTURE
     1 M671287     1 GROUP             0 B     M67     0  
@<TRIPOS>MOLECULE
B:BPP400
    52    55     1     0     0
SMALL
USER_CHARGES
****
Generated from the CSD

@<TRIPOS>ATOM
     1 C1      11.9670 -11.9098  23.2692   C.ar      1 BPP400   0.0000
     2 C2      12.6792 -13.1210  22.9396   C.ar      1 BPP400   0.0000
     3 C3      13.6923 -13.0535  21.9415   C.ar      1 BPP400   0.0000
     4 C4      13.9892 -11.8286  21.2858   C.ar      1 BPP400   0.0000
     5 C5      13.2771 -10.6383  21.6197   C.ar      1 BPP400   0.0000
     6 C6      12.2669 -10.6940  22.6056   C.ar      1 BPP400   0.0000
     7 C10     14.5678 -13.9824  21.3920   C.2       1 BPP400   0.0000
     8 C11     15.3713 -13.3452  20.4405   C.2       1 BPP400   0.0000
     9 N12     14.9713 -12.0344  20.4244   N.pl3     1 BPP400   0.0000
    10 C13     10.9651 -11.8932  24.2782   C.2       1 BPP400   0.0000
    11 N14     10.8354 -10.7501  24.9230   N.pl3     1 BPP400   0.0000
    12 N15     10.2243 -12.9355  24.5771   N.pl3     1 BPP400   1.0000
    13 C17     16.4358 -13.8664  19.6304   C.2       1 BPP400   0.0000
    14 O18     16.2411 -14.4637  18.5612   O.2       1 BPP400   0.0000
    15 N19     17.8247 -13.6684  20.1199   N.am      1 BPP400   0.0000
    16 C20     19.0597 -14.1767  19.3743   C.3       1 BPP400   0.0000
    17 C21     19.5277 -15.3617  20.2684   C.3       1 BPP400   0.0000
    18 C22     19.8021 -14.8590  21.6861   C.3       1 BPP400   0.0000
    19 C23     18.5410 -14.0965  22.2858   C.3       1 BPP400   0.0000
    20 C24     18.1378 -12.9877  21.3731   C.3       1 BPP400   0.0000
    21 C33     20.2188 -16.0009  22.6692   C.3       1 BPP400   0.0000
    22 C35     20.7037 -15.4189  24.0312   C.ar      1 BPP400   0.0000
    23 C38     19.8290 -15.3614  25.1887   C.ar      1 BPP400   0.0000
    24 C39     20.2698 -14.8302  26.4147   C.ar      1 BPP400   0.0000
    25 C40     21.5956 -14.3481  26.5021   C.ar      1 BPP400   0.0000
    26 C41     22.4737 -14.3930  25.3865   C.ar      1 BPP400   0.0000
    27 C42     22.0369 -14.9212  24.1674   C.ar      1 BPP400   0.0000
    28 H1      11.7120  -9.7919  22.8587   H         1 BPP400   0.0000
    29 H2      13.5093  -9.6986  21.1208   H         1 BPP400   0.0000
    30 H3      12.4483 -14.0601  23.4401   H         1 BPP400   0.0000
    31 H4      14.6199 -15.0368  21.6592   H         1 BPP400   0.0000
    32 H5      23.4906 -14.0149  25.4808   H         1 BPP400   0.0000
    33 H6       9.5229 -12.8669  25.3075   H         1 BPP400   0.0000
    34 H7      10.3532 -13.8097  24.0777   H         1 BPP400   0.0000
    35 H8      18.7973 -13.6861  23.2614   H         1 BPP400   0.0000
    36 H9      17.7130 -14.7958  22.3923   H         1 BPP400   0.0000
    37 H10     21.0260 -16.5786  22.2215   H         1 BPP400   0.0000
    38 H11     19.3619 -16.6497  22.8444   H         1 BPP400   0.0000
    39 H12     15.3751 -11.3171  19.8305   H         1 BPP400   0.0000
    40 H13     18.8103 -15.7374  25.1061   H         1 BPP400   0.0000
    41 H14     20.4386 -15.7907  19.8536   H         1 BPP400   0.0000
    42 H15     18.7490 -16.1224  20.2982   H         1 BPP400   0.0000
    43 H16     19.6049 -14.7913  27.2763   H         1 BPP400   0.0000
    44 H17     17.2645 -12.4645  21.7597   H         1 BPP400   0.0000
    45 H18     18.9543 -12.2801  21.2373   H         1 BPP400   0.0000
    46 H19     10.1415 -10.6580  25.6581   H         1 BPP400   0.0000
    47 H20     11.4294  -9.9625  24.6843   H         1 BPP400   0.0000
    48 H21     21.9512 -13.9337  27.4443   H         1 BPP400   0.0000
    49 H22     20.6259 -14.1487  21.6334   H         1 BPP400   0.0000
    50 H23     19.8259 -13.4056  19.3099   H         1 BPP400   0.0000
    51 H24     18.8023 -14.5172  18.3724   H         1 BPP400   0.0000
    52 H25     22.7163 -14.9536  23.3170   H         1 BPP400   0.0000
@<TRIPOS>BOND
     1     1     2   ar
     2     1     6   ar
     3     1    10    1
     4     2     3   ar
     5     3     4   ar
     6     3     7    1
     7     4     5   ar
     8     4     9    1
     9     5     6   ar
    10     7     8    2
    11     8     9    1
    12     8    13    1
    13    10    11    1
    14    10    12    2
    15    13    14    2
    16    13    15   am
    17    15    16    1
    18    15    20    1
    19    16    17    1
    20    17    18    1
    21    18    19    1
    22    18    21    1
    23    19    20    1
    24    21    22    1
    25    22    23   ar
    26    22    27   ar
    27    23    24   ar
    28    24    25   ar
    29    25    26   ar
    30    26    27   ar
    31     6    28    1
    32     5    29    1
    33     2    30    1
    34     7    31    1
    35    26    32    1
    36    12    33    1
    37    12    34    1
    38    19    35    1
    39    19    36    1
    40    21    37    1
    41    21    38    1
    42     9    39    1
    43    23    40    1
    44    17    41    1
    45    17    42    1
    46    24    43    1
    47    20    44    1
    48    20    45    1
    49    11    46    1
    50    11    47    1
    51    25    48    1
    52    18    49    1
    53    16    50    1
    54    16    51    1
    55    27    52    1
@<TRIPOS>SUBSTRUCTURE
     1 BPP400      1 GROUP             0 B     BPP     0  
@<TRIPOS>MOLECULE
H:T422
    85    88     1     0     0
SMALL
NO_CHARGES
****
Generated from the CSD

@<TRIPOS>ATOM
     1 C10     17.4393 -14.7929  22.7890   C.2       1 T422   0.0000
     2 O10     16.4775 -14.0986  23.2487   O.2       1 T422   0.0000
     3 C11     17.6639 -16.1202  23.5218   C.3       1 T422   0.0000
     4 C12     18.0856 -15.8098  24.9852   C.3       1 T422   0.0000
     5 N13     16.4252 -16.8853  23.6642   N.3       1 T422   0.0000
     6 C14     16.5031 -18.2036  23.2564   C.3       1 T422   0.0000
     7 O14     17.1250 -18.1836  21.9435   O.3       1 T422   0.0000
     8 C21     19.5544 -15.3227  25.1790   C.ar      1 T422   0.0000
     9 C22     19.8100 -14.1756  26.0040   C.ar      1 T422   0.0000
    10 C23     21.0983 -13.5771  26.0470   C.ar      1 T422   0.0000
    11 C24     22.1290 -14.1767  25.2220   C.ar      1 T422   0.0000
    12 C25     21.9100 -15.3325  24.4473   C.ar      1 T422   0.0000
    13 C26     20.6103 -15.9711  24.3782   C.ar      1 T422   0.0000
    14 C31     18.0230 -17.1157  25.8201   C.ar      1 T422   0.0000
    15 C32     18.4957 -18.3483  25.2523   C.ar      1 T422   0.0000
    16 C33     18.4754 -19.5248  26.1377   C.ar      1 T422   0.0000
    17 C34     18.0098 -19.3903  27.4783   C.ar      1 T422   0.0000
    18 C35     17.5682 -18.1524  28.0384   C.ar      1 T422   0.0000
    19 C36     17.5892 -16.9599  27.1610   C.ar      1 T422   0.0000
    20 N41     15.2630 -18.9557  23.4278   N.3       1 T422   0.0000
    21 C42     14.9640 -19.3278  24.8618   C.3       1 T422   0.0000
    22 C43     15.6275 -20.6580  25.3130   C.3       1 T422   0.0000
    23 O44     15.1846 -21.6078  24.3451   O.3       1 T422   0.0000
    24 C45     15.6218 -21.4404  22.8604   C.3       1 T422   0.0000
    25 C46     15.1646 -20.0613  22.3514   C.3       1 T422   0.0000
    26 O7      16.1779 -13.9314  20.0335   O.2       1 T422   0.0000
    27 C7      16.5381 -12.8873  20.5865   C.2       1 T422   0.0000
    28 C8      17.8336 -12.9729  21.3334   C.3       1 T422   0.0000
    29 C8A     19.0789 -12.6595  20.3229   C.3       1 T422   0.0000
    30 C8B     20.1652 -13.9909  20.4842   C.3       1 T422   0.0000
    31 C8C     19.3807 -15.2752  21.1820   C.3       1 T422   0.0000
    32 N9      18.2463 -14.4175  21.8521   N.am      1 T422   0.0000
    33 C1      10.8406 -11.6563  24.6277   C.3       1 T422   0.0000
    34 O2      11.5235 -12.3299  23.5401   O.3       1 T422   0.0000
    35 C2      12.1061 -11.3494  22.7042   C.3       1 T422   0.0000
    36 C3      12.9370 -12.0397  21.6281   C.3       1 T422   0.0000
    37 C4      13.6037 -10.9845  20.7101   C.3       1 T422   0.0000
    38 C5      14.6714 -11.6007  19.7894   C.3       1 T422   0.0000
    39 B       14.9966 -10.8354  18.4868   B         1 T422   0.0000
    40 O1A     16.1540 -10.9119  17.8213   O.3       1 T422   0.0000
    41 O1B     13.9662 -10.3933  17.6187   O.3       1 T422   0.0000
    42 N6      15.9275 -11.7177  20.5989   N.am      1 T422   0.0000
    43 H1      19.0044 -13.7579  26.6059   H         1 T422   0.0000
    44 H2      17.2277 -18.6748  23.9188   H         1 T422   0.0000
    45 H3      23.1144 -13.7137  25.2003   H         1 T422   0.0000
    46 H4      20.4271 -16.8625  23.7800   H         1 T422   0.0000
    47 H5      18.8493 -18.4090  24.2241   H         1 T422   0.0000
    48 H6      18.8142 -20.4923  25.7704   H         1 T422   0.0000
    49 H7      18.4267 -16.7130  23.0190   H         1 T422   0.0000
    50 H8      17.9897 -20.2780  28.1088   H         1 T422   0.0000
    51 H9      17.2290 -18.0883  29.0712   H         1 T422   0.0000
    52 H10     17.2789 -15.9860  27.5367   H         1 T422   0.0000
    53 H11     17.4025 -15.0760  25.4102   H         1 T422   0.0000
    54 H12     15.7068 -16.4270  23.1127   H         1 T422   0.0000
    55 H13     18.0280 -17.7761  22.0111   H         1 T422   0.0000
    56 H14     21.3021 -12.7082  26.6710   H         1 T422   0.0000
    57 H15     22.7397 -15.7581  23.8849   H         1 T422   0.0000
    58 H16     21.0063 -13.6974  21.1106   H         1 T422   0.0000
    59 H17     20.5297 -14.2814  19.5000   H         1 T422   0.0000
    60 H18     15.7901 -19.7788  21.5059   H         1 T422   0.0000
    61 H19     14.1280 -20.1378  22.0265   H         1 T422   0.0000
    62 H20     12.7464 -10.6984  23.2975   H         1 T422   0.0000
    63 H21     11.3215 -10.7575  22.2352   H         1 T422   0.0000
    64 H22     14.3475 -12.6049  19.5201   H         1 T422   0.0000
    65 H23     13.8853 -19.4263  24.9737   H         1 T422   0.0000
    66 H24     15.3244 -18.5278  25.5069   H         1 T422   0.0000
    67 H25     19.5726 -11.7312  20.6066   H         1 T422   0.0000
    68 H26     18.7236 -12.5827  19.2963   H         1 T422   0.0000
    69 H27     16.2913 -10.9340  21.1316   H         1 T422   0.0000
    70 H28     15.1646 -22.2221  22.2556   H         1 T422   0.0000
    71 H29     16.7060 -21.5139  22.7894   H         1 T422   0.0000
    72 H30     17.8358 -12.2643  22.1603   H         1 T422   0.0000
    73 H31     19.9970 -15.8019  21.9090   H         1 T422   0.0000
    74 H32     18.9972 -15.9841  20.4497   H         1 T422   0.0000
    75 H33     15.2944 -20.9381  26.3112   H         1 T422   0.0000
    76 H34     16.7131 -20.5724  25.3032   H         1 T422   0.0000
    77 H35     10.0677 -11.0047  24.2228   H         1 T422   0.0000
    78 H36     10.3845 -12.3963  25.2837   H         1 T422   0.0000
    79 H37     11.5568 -11.0620  25.1933   H         1 T422   0.0000
    80 H38     16.3121 -11.8507  17.5390   H         1 T422   0.0000
    81 H39     13.3665  -9.7704  18.1070   H         1 T422   0.0000
    82 H40     14.0748 -10.2259  21.3335   H         1 T422   0.0000
    83 H41     12.8349 -10.5214  20.0934   H         1 T422   0.0000
    84 H42     12.2907 -12.6804  21.0300   H         1 T422   0.0000
    85 H43     13.7092 -12.6440  22.1019   H         1 T422   0.0000
@<TRIPOS>BOND
     1     1     2    2
     2     1     3    1
     3     1    32   am
     4     3     4    1
     5     3     5    1
     6     4     8    1
     7     4    14    1
     8     5     6    1
     9     6     7    1
    10     6    20    1
    11     8     9   ar
    12     8    13   ar
    13     9    10   ar
    14    10    11   ar
    15    11    12   ar
    16    12    13   ar
    17    14    15   ar
    18    14    19   ar
    19    15    16   ar
    20    16    17   ar
    21    17    18   ar
    22    18    19   ar
    23    20    21    1
    24    20    25    1
    25    21    22    1
    26    22    23    1
    27    23    24    1
    28    24    25    1
    29    26    27    2
    30    27    28    1
    31    27    42   am
    32    28    29    1
    33    28    32    1
    34    29    30    1
    35    30    31    1
    36    31    32    1
    37    33    34    1
    38    34    35    1
    39    35    36    1
    40    36    37    1
    41    37    38    1
    42    38    39    1
    43    38    42    1
    44    39    40    1
    45    39    41    1
    46     9    43    1
    47     6    44    1
    48    11    45    1
    49    13    46    1
    50    15    47    1
    51    16    48    1
    52     3    49    1
    53    17    50    1
    54    18    51    1
    55    19    52    1
    56     4    53    1
    57     5    54    1
    58     7    55    1
    59    10    56    1
    60    12    57    1
    61    30    58    1
    62    30    59    1
    63    25    60    1
    64    25    61    1
    65    35    62    1
    66    35    63    1
    67    38    64    1
    68    21    65    1
    69    21    66    1
    70    29    67    1
    71    29    68    1
    72    42    69    1
    73    24    70    1
    74    24    71    1
    75    28    72    1
    76    31    73    1
    77    31    74    1
    78    22    75    1
    79    22    76    1
    80    33    77    1
    81    33    78    1
    82    33    79    1
    83    40    80    1
    84    41    81    1
    85    37    82    1
    86    37    83    1
    87    36    84    1
    88    36    85    1
@<TRIPOS>SUBSTRUCTURE
     1 T422        1 GROUP             0 H     T42     0  
@<TRIPOS>MOLECULE
H:2TS901
    89    91     1     0     0
SMALL
USER_CHARGES
****
Generated from the CSD

@<TRIPOS>ATOM
     1 C1      16.1417 -19.0903  22.8999   C.3       1 2TS901   0.0000
     2 S19     15.6591 -17.5107  22.7194   S.o2      1 2TS901   0.0000
     3 C55     15.5879 -19.6417  24.1938   C.ar      1 2TS901   0.0000
     4 C50     14.2434 -19.9813  24.2858   C.ar      1 2TS901   0.0000
     5 C51     13.7345 -20.4885  25.4760   C.ar      1 2TS901   0.0000
     6 C52     14.5711 -20.6561  26.5741   C.ar      1 2TS901   0.0000
     7 C53     15.9156 -20.3165  26.4810   C.ar      1 2TS901   0.0000
     8 C54     16.4245 -19.8093  25.2909   C.ar      1 2TS901   0.0000
     9 O27     16.1068 -17.2044  21.3894   O.2       1 2TS901   0.0000
    10 O28     14.2262 -17.6231  22.7282   O.2       1 2TS901   0.0000
    11 N29     16.2909 -16.6211  23.8900   N.pl3     1 2TS901   0.0000
    12 C28     17.4358 -15.7733  23.6189   C.3       1 2TS901   0.0000
    13 C42     18.1797 -15.4724  24.9141   C.3       1 2TS901   0.0000
    14 C43     18.5659 -16.7594  25.6335   C.3       1 2TS901   0.0000
    15 C44     18.9574 -18.2329  25.6577   C.3       1 2TS901   0.0000
    16 C44     19.4892 -16.2233  26.7207   C.3       1 2TS901   0.0000
    17 N45     19.3452 -18.4976  27.0345   N.pl3     1 2TS901   0.0000
    18 N45     20.8363 -16.4690  26.2265   N.pl3     1 2TS901   0.0000
    19 C34     18.9692 -19.5271  27.7882   C.cat     1 2TS901   0.0000
    20 C34     21.8241 -17.0862  26.8690   C.cat     1 2TS901   0.0000
    21 N39     19.3804 -19.6126  29.0493   N.pl3     1 2TS901   1.0000
    22 N39     21.5543 -18.1001  27.6861   N.pl3     1 2TS901   1.0000
    23 N38     18.2023 -20.4076  27.3148   N.pl3     1 2TS901   1.0000
    24 N38     23.0183 -16.7254  26.6850   N.pl3     1 2TS901   1.0000
    25 C27     17.0268 -14.4853  22.9666   C.2       1 2TS901   0.0000
    26 O38     15.9905 -13.9293  23.2892   O.2       1 2TS901   0.0000
    27 N25     17.8484 -14.0043  22.0379   N.am      1 2TS901   0.0000
    28 C26     17.5322 -12.7562  21.3490   C.3       1 2TS901   0.0000
    29 C21     16.1283 -12.7568  20.8211   C.2       1 2TS901   0.0000
    30 O39     15.7208 -13.6868  20.1453   O.2       1 2TS901   0.0000
    31 C22     18.5127 -12.6875  20.1861   C.3       1 2TS901   0.0000
    32 C23     19.4880 -13.8402  20.3377   C.3       1 2TS901   0.0000
    33 C24     19.1033 -14.6070  21.5954   C.3       1 2TS901   0.0000
    34 N19     15.3770 -11.7030  21.1313   N.am      1 2TS901   0.0000
    35 C10     13.9944 -11.4685  20.7427   C.3       1 2TS901   0.0000
    36 C6      13.1359 -11.3525  21.9815   C.ar      1 2TS901   0.0000
    37 C5      12.3276 -12.4089  22.3638   C.ar      1 2TS901   0.0000
    38 C32     12.3035 -13.6776  21.5441   C.3       1 2TS901   0.0000
    39 N33     11.0446 -14.3005  21.9062   N.3       1 2TS901   0.0000
    40 N33     13.4264 -14.4270  22.0762   N.3       1 2TS901   0.0000
    41 C4      11.5368 -12.3046  23.5025   C.ar      1 2TS901   0.0000
    42 C3      11.5574 -11.1369  24.2578   C.ar      1 2TS901   0.0000
    43 C2      12.3687 -10.0765  23.8734   C.ar      1 2TS901   0.0000
    44 CL1     12.3981  -8.5685  24.8464   Cl        1 2TS901   0.0000
    45 C7      13.1584 -10.1848  22.7347   C.ar      1 2TS901   0.0000
    46 H1      13.5885 -19.8501  23.4257   H         1 2TS901   0.0000
    47 H2      16.5708 -20.4478  27.3409   H         1 2TS901   0.0000
    48 H3      18.1091 -16.3039  22.9473   H         1 2TS901   0.0000
    49 H4      17.5377 -14.8799  25.5642   H         1 2TS901   0.0000
    50 H5      19.0824 -14.9086  24.6837   H         1 2TS901   0.0000
    51 H6      17.2294 -19.1373  22.9213   H         1 2TS901   0.0000
    52 H7      15.7692 -19.6813  22.0645   H         1 2TS901   0.0000
    53 H8      17.6701 -16.8466  26.2466   H         1 2TS901   0.0000
    54 H9      17.4780 -19.5435  25.2183   H         1 2TS901   0.0000
    55 H10     19.7917 -18.4183  24.9828   H         1 2TS901   0.0000
    56 H11     18.1129 -18.8580  25.3711   H         1 2TS901   0.0000
    57 H12     15.8903 -16.6503  24.8222   H         1 2TS901   0.0000
    58 H13     19.9700 -17.8244  27.4665   H         1 2TS901   0.0000
    59 H14     21.0442 -16.1333  25.2914   H         1 2TS901   0.0000
    60 H15     14.1729 -21.0533  27.5066   H         1 2TS901   0.0000
    61 H16     12.6809 -20.7545  25.5483   H         1 2TS901   0.0000
    62 H17     19.3233 -16.7516  27.6584   H         1 2TS901   0.0000
    63 H18     19.3251 -15.1572  26.8707   H         1 2TS901   0.0000
    64 H19     13.2806 -14.5979  23.0660   H         1 2TS901   0.0000
    65 H20     13.5036 -15.3133  21.5876   H         1 2TS901   0.0000
    66 H21     12.3896 -13.4907  20.4747   H         1 2TS901   0.0000
    67 H22     10.9017 -13.1367  23.8029   H         1 2TS901   0.0000
    68 H23     13.6424 -12.2999  20.1337   H         1 2TS901   0.0000
    69 H24     13.9301 -10.5453  20.1687   H         1 2TS901   0.0000
    70 H25     13.7950  -9.3544  22.4328   H         1 2TS901   0.0000
    71 H26     10.9381 -11.0538  25.1497   H         1 2TS901   0.0000
    72 H27     20.5032 -13.4576  20.4321   H         1 2TS901   0.0000
    73 H28     19.4262 -14.4954  19.4700   H         1 2TS901   0.0000
    74 H29     19.0936 -20.3981  29.6245   H         1 2TS901   0.0000
    75 H30     19.9814 -18.8923  29.4371   H         1 2TS901   0.0000
    76 H31     22.3079 -18.5711  28.1764   H         1 2TS901   0.0000
    77 H32     20.5947 -18.4029  27.8195   H         1 2TS901   0.0000
    78 H33     17.6820 -11.9096  22.0173   H         1 2TS901   0.0000
    79 H34     18.9624 -15.6633  21.3714   H         1 2TS901   0.0000
    80 H35     19.8709 -14.4973  22.3601   H         1 2TS901   0.0000
    81 H36     17.9153 -21.1932  27.8899   H         1 2TS901   0.0000
    82 H37     17.8714 -20.3313  26.3582   H         1 2TS901   0.0000
    83 H38     23.7720 -17.1964  27.1753   H         1 2TS901   0.0000
    84 H39     23.2259 -15.9640  26.0467   H         1 2TS901   0.0000
    85 H40     15.8155 -10.9857  21.7000   H         1 2TS901   0.0000
    86 H41     19.0505 -11.7408  20.2095   H         1 2TS901   0.0000
    87 H42     17.9762 -12.7769  19.2426   H         1 2TS901   0.0000
    88 H43     10.2788 -13.6772  21.6712   H         1 2TS901   0.0000
    89 H44     10.9398 -15.1723  21.3970   H         1 2TS901   0.0000
@<TRIPOS>BOND
     1     1     2    1
     2     1     3    1
     3     2     9    2
     4     2    10    2
     5     2    11    1
     6     3     4   ar
     7     3     8   ar
     8     4     5   ar
     9     5     6   ar
    10     6     7   ar
    11     7     8   ar
    12    11    12    1
    13    12    13    1
    14    12    25    1
    15    13    14    1
    16    14    15    1
    17    14    16    1
    18    15    17    1
    19    16    18    1
    20    17    19    1
    21    18    20    1
    22    19    21   ar
    23    19    23   ar
    24    20    22   ar
    25    20    24   ar
    26    25    26    2
    27    25    27   am
    28    27    28    1
    29    27    33    1
    30    28    29    1
    31    28    31    1
    32    29    30    2
    33    29    34   am
    34    31    32    1
    35    32    33    1
    36    34    35    1
    37    35    36    1
    38    36    37   ar
    39    36    45   ar
    40    37    38    1
    41    37    41   ar
    42    38    39    1
    43    38    40    1
    44    41    42   ar
    45    42    43   ar
    46    43    44    1
    47    43    45   ar
    48     4    46    1
    49     7    47    1
    50    12    48    1
    51    13    49    1
    52    13    50    1
    53     1    51    1
    54     1    52    1
    55    14    53    1
    56     8    54    1
    57    15    55    1
    58    15    56    1
    59    11    57    1
    60    17    58    1
    61    18    59    1
    62     6    60    1
    63     5    61    1
    64    16    62    1
    65    16    63    1
    66    40    64    1
    67    40    65    1
    68    38    66    1
    69    41    67    1
    70    35    68    1
    71    35    69    1
    72    45    70    1
    73    42    71    1
    74    32    72    1
    75    32    73    1
    76    21    74    1
    77    21    75    1
    78    22    76    1
    79    22    77    1
    80    28    78    1
    81    33    79    1
    82    33    80    1
    83    23    81    1
    84    23    82    1
    85    24    83    1
    86    24    84    1
    87    34    85    1
    88    31    86    1
    89    31    87    1
    90    39    88    1
    91    39    89    1
@<TRIPOS>SUBSTRUCTURE
     1 2TS901      1 GROUP             0 H     2TS     0  
@<TRIPOS>MOLECULE
A:176401
    61    64     1     0     0
SMALL
NO_CHARGES
****
Generated from the CSD

@<TRIPOS>ATOM
     1 CD1     20.5109 -15.7811  24.1036   C.ar      1 176401   0.0000
     2 CE1     21.8010 -15.3202  24.2610   C.ar      1 176401   0.0000
     3 CZ1     22.1170 -14.4591  25.2838   C.ar      1 176401   0.0000
     4 CE2     21.1307 -14.0510  26.1462   C.ar      1 176401   0.0000
     5 CD2     19.8436 -14.5119  25.9888   C.ar      1 176401   0.0000
     6 CG1     19.5228 -15.3850  24.9701   C.ar      1 176401   0.0000
     7 CB0     18.0907 -15.9347  24.8691   C.3       1 176401   0.0000
     8 CA0     17.4623 -16.0869  23.4457   C.3       1 176401   0.0000
     9 C0      17.1623 -14.7290  22.8510   C.2       1 176401   0.0000
    10 O0      16.2032 -14.0604  23.2766   O.2       1 176401   0.0000
    11 N0      16.1793 -16.7544  23.5056   N.3       1 176401   0.0000
    12 CG2     17.9944 -17.1732  25.7474   C.ar      1 176401   0.0000
    13 CD3     18.1729 -18.4431  25.2143   C.ar      1 176401   0.0000
    14 CE3     18.0932 -19.5437  26.0437   C.ar      1 176401   0.0000
    15 CZ2     17.8409 -19.3775  27.3912   C.ar      1 176401   0.0000
    16 CE4     17.6664 -18.1066  27.9133   C.ar      1 176401   0.0000
    17 CD4     17.7392 -16.9980  27.0989   C.ar      1 176401   0.0000
    18 N       17.9665 -14.2602  21.8792   N.am      1 176401   0.0000
    19 CA      17.7197 -13.0136  21.1689   C.3       1 176401   0.0000
    20 C       16.2890 -12.8390  20.6363   C.2       1 176401   0.0000
    21 O       15.9356 -13.5031  19.6566   O.2       1 176401   0.0000
    22 CB      18.7902 -13.0234  20.0745   C.3       1 176401   0.0000
    23 CG      19.9095 -13.7850  20.7076   C.3       1 176401   0.0000
    24 CD      19.1277 -14.9331  21.2975   C.3       1 176401   0.0000
    25 N'      15.5017 -11.9129  21.2173   N.am      1 176401   0.0000
    26 CA'     14.1457 -11.6310  20.7906   C.3       1 176401   0.0000
    27 CB'     13.1754 -11.5879  21.9652   C.ar      1 176401   0.0000
    28 CG'     12.3168 -12.6053  22.2787   C.ar      1 176401   0.0000
    29 CD'     11.4144 -12.6354  23.3273   C.ar      1 176401   0.0000
    30 CE'     11.3542 -11.5347  24.1618   C.ar      1 176401   0.0000
    31 CDB     12.2067 -10.4892  23.8692   C.ar      1 176401   0.0000
    32 CGB     13.0866 -10.5204  22.8061   C.ar      1 176401   0.0000
    33 CL1     12.3646 -13.9376  21.2147   Cl        1 176401   0.0000
    34 CL2     12.1847  -9.0813  24.8336   Cl        1 176401   0.0000
    35 H1      20.2748 -16.4627  23.2878   H         1 176401   0.0000
    36 H2      22.5769 -15.6419  23.5679   H         1 176401   0.0000
    37 H3      23.1389 -14.1043  25.4088   H         1 176401   0.0000
    38 H4      21.3667 -13.3620  26.9558   H         1 176401   0.0000
    39 H5      17.4715 -15.1910  25.3683   H         1 176401   0.0000
    40 H6      18.2293 -20.5439  25.6350   H         1 176401   0.0000
    41 H7      18.3739 -18.5695  24.1515   H         1 176401   0.0000
    42 H8      17.4699 -17.9826  28.9772   H         1 176401   0.0000
    43 H9      17.7792 -20.2468  28.0442   H         1 176401   0.0000
    44 H10     17.5984 -15.9995  27.5102   H         1 176401   0.0000
    45 H11     18.1400 -16.6380  22.7953   H         1 176401   0.0000
    46 H12     15.5433 -16.2138  24.0831   H         1 176401   0.0000
    47 H13     15.7975 -16.8382  22.5689   H         1 176401   0.0000
    48 H14     15.8790 -11.3835  21.9968   H         1 176401   0.0000
    49 H15     19.1000 -12.0107  19.8207   H         1 176401   0.0000
    50 H16     18.4303 -13.5280  19.1791   H         1 176401   0.0000
    51 H17     13.8259 -12.4087  20.0986   H         1 176401   0.0000
    52 H18     14.1294 -10.6664  20.2854   H         1 176401   0.0000
    53 H19     10.7716 -13.4992  23.4902   H         1 176401   0.0000
    54 H20     10.6690 -11.4945  25.0072   H         1 176401   0.0000
    55 H21     18.8268 -15.6413  20.5269   H         1 176401   0.0000
    56 H22     19.7056 -15.4514  22.0612   H         1 176401   0.0000
    57 H23     19.0675 -14.1827  26.6781   H         1 176401   0.0000
    58 H24     17.9335 -12.1882  21.8463   H         1 176401   0.0000
    59 H25     13.7326  -9.6608  22.6336   H         1 176401   0.0000
    60 H26     20.4151 -13.2010  21.4752   H         1 176401   0.0000
    61 H27     20.6369 -14.1246  19.9718   H         1 176401   0.0000
@<TRIPOS>BOND
     1     1     2   ar
     2     1     6   ar
     3     2     3   ar
     4     3     4   ar
     5     4     5   ar
     6     5     6   ar
     7     6     7    1
     8     7     8    1
     9     7    12    1
    10     8     9    1
    11     8    11    1
    12     9    10    2
    13     9    18   am
    14    12    13   ar
    15    12    17   ar
    16    13    14   ar
    17    14    15   ar
    18    15    16   ar
    19    16    17   ar
    20    18    19    1
    21    18    24    1
    22    19    20    1
    23    19    22    1
    24    20    21    2
    25    20    25   am
    26    22    23    1
    27    23    24    1
    28    25    26    1
    29    26    27    1
    30    27    28   ar
    31    27    32   ar
    32    28    29   ar
    33    28    33    1
    34    29    30   ar
    35    30    31   ar
    36    31    32   ar
    37    31    34    1
    38     1    35    1
    39     2    36    1
    40     3    37    1
    41     4    38    1
    42     7    39    1
    43    14    40    1
    44    13    41    1
    45    16    42    1
    46    15    43    1
    47    17    44    1
    48     8    45    1
    49    11    46    1
    50    11    47    1
    51    25    48    1
    52    22    49    1
    53    22    50    1
    54    26    51    1
    55    26    52    1
    56    29    53    1
    57    30    54    1
    58    24    55    1
    59    24    56    1
    60     5    57    1
    61    19    58    1
    62    32    59    1
    63    23    60    1
    64    23    61    1
@<TRIPOS>SUBSTRUCTURE
     1 176401      1 GROUP             0 A     176     0  
@<TRIPOS>MOLECULE
A:L171001
    54    56     1     0     0
SMALL
NO_CHARGES
****
Generated from the CSD

@<TRIPOS>ATOM
     1 C8      20.0784 -14.3818  26.5420   C.ar      1 L171001   0.0000
     2 C2      20.0730 -15.7981  26.2536   C.ar      1 L171001   0.0000
     3 N1      21.2223 -16.3923  25.6866   N.ar      1 L171001   0.0000
     4 C4      22.3870 -15.7182  25.3555   C.ar      1 L171001   0.0000
     5 C5      22.4333 -14.3063  25.6207   C.ar      1 L171001   0.0000
     6 C6      21.2830 -13.6605  26.2209   C.ar      1 L171001   0.0000
     7 C11     18.7998 -16.6272  26.4249   C.3       1 L171001   0.0000
     8 C1      18.1095 -16.9715  25.1234   C.3       1 L171001   0.0000
     9 N18     17.6146 -15.7950  24.3484   N.2       1 L171001   0.0000
    10 C21     18.3033 -15.2143  23.2554   C.2       1 L171001   0.0000
    11 N2      17.6768 -14.1251  22.7078   N.pl3     1 L171001   0.0000
    12 C10     18.2729 -13.4318  21.7163   C.2       1 L171001   0.0000
    13 C24     19.5562 -13.8340  21.2442   C.2       1 L171001   0.0000
    14 C25     20.2318 -14.9653  21.7814   C.2       1 L171001   0.0000
    15 C3      19.5930 -15.6809  22.8185   C.2       1 L171001   0.0000
    16 O28     16.4377 -13.7844  23.2016   O.3       1 L171001   0.0000
    17 CL2     20.3074 -12.9489  19.9905   Cl        1 L171001   0.0000
    18 C33     17.5470 -12.2244  21.1391   C.3       1 L171001   0.0000
    19 C34     16.0920 -12.5704  20.8199   C.2       1 L171001   0.0000
    20 N37     15.2157 -11.6252  21.1713   N.am      1 L171001   0.0000
    21 O38     15.7983 -13.6220  20.2577   O.2       1 L171001   0.0000
    22 C39     13.7845 -11.9083  21.0189   C.3       1 L171001   0.0000
    23 C40     12.9894 -11.6171  22.2294   C.ar      1 L171001   0.0000
    24 C43     13.1848 -10.4014  22.9804   C.ar      1 L171001   0.0000
    25 C44     12.3043 -10.1709  24.1023   C.ar      1 L171001   0.0000
    26 C45     11.2715 -11.1270  24.4766   C.ar      1 L171001   0.0000
    27 C50     11.9415 -12.5503  22.5954   C.ar      1 L171001   0.0000
    28 C9      11.0611 -12.3299  23.7175   C.ar      1 L171001   0.0000
    29 F1      19.1175 -17.8254  26.9611   F         1 L171001   0.0000
    30 F2      17.8756 -16.0168  27.2024   F         1 L171001   0.0000
    31 CL1     12.4649  -8.7087  24.9992   Cl        1 L171001   0.0000
    32 O1      21.1788 -17.7186  25.4008   O.3       1 L171001   0.0000
    33 C7      13.1934 -11.0945  19.8718   C.3       1 L171001   0.0000
    34 H1      19.2144 -13.8847  26.9804   H         1 L171001   0.0000
    35 H2      21.3311 -12.5941  26.4362   H         1 L171001   0.0000
    36 H3      23.2346 -16.2382  24.9115   H         1 L171001   0.0000
    37 H4      23.3226 -13.7284  25.3736   H         1 L171001   0.0000
    38 H5      17.2575 -17.6108  25.3502   H         1 L171001   0.0000
    39 H6      18.8158 -17.5162  24.4986   H         1 L171001   0.0000
    40 H7      20.4500 -17.8930  24.7492   H         1 L171001   0.0000
    41 H8      20.0597 -16.5544  23.2712   H         1 L171001   0.0000
    42 H9      18.0482 -11.9091  20.2252   H         1 L171001   0.0000
    43 H10     17.5705 -11.4126  21.8646   H         1 L171001   0.0000
    44 H11     13.7036 -11.3506  18.9444   H         1 L171001   0.0000
    45 H12     12.1321 -11.3194  19.7763   H         1 L171001   0.0000
    46 H13     13.3225 -10.0326  20.0758   H         1 L171001   0.0000
    47 H14     11.8138 -13.4532  21.9999   H         1 L171001   0.0000
    48 H15     16.5119 -13.5823  24.1710   H         1 L171001   0.0000
    49 H16     15.5328 -10.7323  21.5351   H         1 L171001   0.0000
    50 H17     13.9627  -9.6877  22.7131   H         1 L171001   0.0000
    51 H18     21.2078 -15.2691  21.4058   H         1 L171001   0.0000
    52 H19     10.6477 -10.9274  25.3466   H         1 L171001   0.0000
    53 H20     10.2764 -13.0393  23.9764   H         1 L171001   0.0000
    54 H21     13.6695 -12.9649  20.7818   H         1 L171001   0.0000
@<TRIPOS>BOND
     1     1     2   ar
     2     1     6   ar
     3     2     3   ar
     4     2     7    1
     5     3     4   ar
     6     3    32    1
     7     4     5   ar
     8     5     6   ar
     9     7     8    1
    10     7    29    1
    11     7    30    1
    12     8     9    1
    13     9    10    2
    14    10    11    1
    15    10    15    1
    16    11    12    1
    17    11    16    1
    18    12    13    2
    19    12    18    1
    20    13    14    1
    21    13    17    1
    22    14    15    2
    23    18    19    1
    24    19    20   am
    25    19    21    2
    26    20    22    1
    27    22    23    1
    28    22    33    1
    29    23    24   ar
    30    23    27   ar
    31    24    25   ar
    32    25    26   ar
    33    25    31    1
    34    26    28   ar
    35    27    28   ar
    36     1    34    1
    37     6    35    1
    38     4    36    1
    39     5    37    1
    40     8    38    1
    41     8    39    1
    42    32    40    1
    43    15    41    1
    44    18    42    1
    45    18    43    1
    46    33    44    1
    47    33    45    1
    48    33    46    1
    49    27    47    1
    50    16    48    1
    51    20    49    1
    52    24    50    1
    53    14    51    1
    54    26    52    1
    55    28    53    1
    56    22    54    1
@<TRIPOS>SUBSTRUCTURE
     1 L171001     1 GROUP             0 A     L17     0  
@<TRIPOS>MOLECULE
H:120246
    31    33     1     0     0
SMALL
USER_CHARGES
****
Generated from the CSD

@<TRIPOS>ATOM
     1 C1      11.9032 -11.7701  22.9772   C.ar      1 120246   0.0000
     2 C2      12.4219 -10.4984  22.6317   C.ar      1 120246   0.0000
     3 C3      13.3249 -10.3614  21.5890   C.ar      1 120246   0.0000
     4 C4      13.6742 -11.4998  20.9290   C.ar      1 120246   0.0000
     5 C5      13.2092 -12.7360  21.2200   C.ar      1 120246   0.0000
     6 C6      12.3073 -12.9160  22.2531   C.ar      1 120246   0.0000
     7 C7      11.0133 -11.8880  24.0257   C.2       1 120246   0.0000
     8 N1      10.3535 -13.0039  24.1574   N.pl3     1 120246   1.0000
     9 N2      10.8638 -10.8796  24.8612   N.pl3     1 120246   0.0000
    10 N3      14.4699 -11.6594  19.9603   N.pl3     1 120246   0.0000
    11 N4      13.6998 -13.6673  20.4395   N.pl3     1 120246   0.0000
    12 C8      14.4838 -12.9281  19.6638   C.2       1 120246   0.0000
    13 C1'     15.2257 -13.4335  18.6025   C.2       1 120246   0.0000
    14 C2'     15.0183 -14.7564  18.2143   C.2       1 120246   0.0000
    15 C3'     15.7462 -15.2628  17.1601   C.2       1 120246   0.0000
    16 C4'     16.6635 -14.4342  16.5161   C.2       1 120246   0.0000
    17 N5'     16.8470 -13.1844  16.8970   N.2       1 120246   0.0000
    18 C6'     16.1828 -12.6464  17.8967   C.2       1 120246   0.0000
    19 O6'     16.3972 -11.4872  18.2074   O.2       1 120246   0.0000
    20 H1      11.9223 -13.9043  22.5000   H         1 120246   0.0000
    21 H2      13.7345  -9.3913  21.3114   H         1 120246   0.0000
    22 H3      12.1080  -9.6185  23.1913   H         1 120246   0.0000
    23 H4      10.2123 -10.9547  25.6359   H         1 120246   0.0000
    24 H5      11.4001 -10.0280  24.7299   H         1 120246   0.0000
    25 H6       9.6931 -13.1160  24.9199   H         1 120246   0.0000
    26 H7      10.5000 -13.7609  23.4973   H         1 120246   0.0000
    27 H8      14.2929 -15.3791  18.7358   H         1 120246   0.0000
    28 H9      15.6073 -16.2930  16.8354   H         1 120246   0.0000
    29 H10     15.0025 -10.9303  19.4967   H         1 120246   0.0000
    30 H11     17.2412 -14.8268  15.6805   H         1 120246   0.0000
    31 H12     13.5292 -14.6678  20.4306   H         1 120246   0.0000
@<TRIPOS>BOND
     1     1     2   ar
     2     1     6   ar
     3     1     7    1
     4     2     3   ar
     5     3     4   ar
     6     4     5   ar
     7     4    10    1
     8     5     6   ar
     9     5    11    1
    10     7     8    2
    11     7     9    1
    12    10    12    1
    13    11    12    1
    14    12    13    2
    15    13    14    1
    16    13    18    1
    17    14    15    2
    18    15    16    1
    19    16    17    2
    20    17    18    1
    21    18    19    2
    22     6    20    1
    23     3    21    1
    24     2    22    1
    25     9    23    1
    26     9    24    1
    27     8    25    1
    28     8    26    1
    29    14    27    1
    30    15    28    1
    31    10    29    1
    32    16    30    1
    33    11    31    1
@<TRIPOS>SUBSTRUCTURE
     1 120246      1 GROUP             0 H     120     0  
@<TRIPOS>MOLECULE
B:C2A1250
    18    18     1     0     0
SMALL
USER_CHARGES
****
Generated from the CSD

@<TRIPOS>ATOM
     1 N       14.4131 -12.4058  20.8639   N.4       1 C2A1250   1.0000
     2 C       13.3555 -11.3905  20.7345   C.3       1 C2A1250   0.0000
     3 C1      12.5793 -11.2907  22.0194   C.ar      1 C2A1250   0.0000
     4 C2      11.7164 -12.3098  22.3919   C.ar      1 C2A1250   0.0000
     5 C3      11.0008 -12.1992  23.5787   C.ar      1 C2A1250   0.0000
     6 C4      11.1523 -11.0765  24.3889   C.ar      1 C2A1250   0.0000
     7 C5      12.0141 -10.0505  24.0124   C.ar      1 C2A1250   0.0000
     8 C6      12.7187 -10.1733  22.8228   C.ar      1 C2A1250   0.0000
     9 CL8     12.1909  -8.6191  25.0213   Cl        1 C2A1250   0.0000
    10 H1      10.5941 -11.0012  25.3210   H         1 C2A1250   0.0000
    11 H2      13.3936  -9.3754  22.5164   H         1 C2A1250   0.0000
    12 H3      13.9939 -13.3065  21.0718   H         1 C2A1250   0.0000
    13 H4      14.9317 -12.4669  19.9935   H         1 C2A1250   0.0000
    14 H5      15.0431 -12.1443  21.6155   H         1 C2A1250   0.0000
    15 H6      11.6000 -13.1893  21.7604   H         1 C2A1250   0.0000
    16 H7      12.6816 -11.6724  19.9268   H         1 C2A1250   0.0000
    17 H8      13.8073 -10.4254  20.5101   H         1 C2A1250   0.0000
    18 H9      10.3186 -12.9941  23.8762   H         1 C2A1250   0.0000
@<TRIPOS>BOND
     1     1     2    1
     2     2     3    1
     3     3     4   ar
     4     3     8   ar
     5     4     5   ar
     6     5     6   ar
     7     6     7   ar
     8     7     8   ar
     9     7     9    1
    10     6    10    1
    11     8    11    1
    12     1    12    1
    13     1    13    1
    14     1    14    1
    15     4    15    1
    16     2    16    1
    17     2    17    1
    18     5    18    1
@<TRIPOS>SUBSTRUCTURE
     1 C2A1250     1 GROUP             0 B     C2A     0  
@<TRIPOS>MOLECULE
H:QWE373
    82    85     1     0     0
SMALL
USER_CHARGES
****
Generated from the CSD

@<TRIPOS>ATOM
     1 C1      17.8322 -17.2167  22.7653   C.ar      1 QWE373   0.0000
     2 C2      18.6304 -17.4107  21.6120   C.ar      1 QWE373   0.0000
     3 C3      19.9655 -17.1068  21.6913   C.ar      1 QWE373   0.0000
     4 C4      20.5002 -16.6056  22.8860   C.ar      1 QWE373   0.0000
     5 C4A     19.7218 -16.3760  24.0155   C.ar      1 QWE373   0.0000
     6 C5      20.2031 -15.7888  25.1540   C.ar      1 QWE373   0.0000
     7 C6      19.3693 -15.5452  26.2248   C.ar      1 QWE373   0.0000
     8 C7      18.0202 -15.9479  26.1573   C.ar      1 QWE373   0.0000
     9 C8      17.4870 -16.5070  25.0227   C.ar      1 QWE373   0.0000
    10 C8A     18.3128 -16.7066  23.9493   C.ar      1 QWE373   0.0000
    11 N       21.5032 -15.2835  25.1920   N.pl3     1 QWE373   0.0000
    12 CM1     22.0120 -14.2326  24.2785   C.3       1 QWE373   0.0000
    13 CM2     22.7573 -16.2059  25.5905   C.3       1 QWE373   0.0000
    14 S       16.0042 -17.6207  22.5929   S.o2      1 QWE373   0.0000
    15 O1S     16.0709 -18.0784  21.1933   O.2       1 QWE373   0.0000
    16 O2S     15.1007 -18.2115  23.5963   O.2       1 QWE373   0.0000
    17 N1      14.9907 -16.0074  22.6399   N.pl3     1 QWE373   0.0000
    18 CA      15.2818 -15.1736  21.4331   C.3       1 QWE373   0.0000
    19 C       16.4007 -14.2199  21.8625   C.2       1 QWE373   0.0000
    20 O       16.3158 -13.8127  23.0180   O.2       1 QWE373   0.0000
    21 CB      14.0282 -14.4196  21.0127   C.3       1 QWE373   0.0000
    22 CG      13.3289 -13.7293  22.1852   C.3       1 QWE373   0.0000
    23 CD      11.9857 -13.1830  21.7234   C.3       1 QWE373   0.0000
    24 NE      11.3222 -12.6746  22.9049   N.pl3     1 QWE373   0.0000
    25 CZ      11.5683 -11.5693  23.5859   C.cat     1 QWE373   0.0000
    26 NH1     12.4677 -10.6986  23.1244   N.pl3     1 QWE373   1.0000
    27 NH2     10.8437 -11.3307  24.6708   N.pl3     1 QWE373   1.0000
    28 N11     17.3665 -13.7631  20.9240   N.am      1 QWE373   0.0000
    29 C21     17.1165 -14.1310  19.4294   C.3       1 QWE373   0.0000
    30 C31     18.4897 -14.5813  18.9081   C.3       1 QWE373   0.0000
    31 C41     19.6831 -13.5210  19.2639   C.3       1 QWE373   0.0000
    32 C51     19.7826 -13.1586  20.8278   C.3       1 QWE373   0.0000
    33 C61     18.4427 -12.7439  21.3765   C.3       1 QWE373   0.0000
    34 C1'     16.6613 -13.1258  18.6378   C.3       1 QWE373   0.0000
    35 C2'     15.9974 -13.5608  17.2800   C.3       1 QWE373   0.0000
    36 S1      15.8149 -15.0888  14.5878   S.3       1 QWE373   0.0000
    37 O2      17.5387 -12.0763  16.3479   O.2       1 QWE373   0.0000
    38 C52     17.0821 -15.7867  13.6397   C.2       1 QWE373   0.0000
    39 C22     16.8998 -13.7374  14.8352   C.2       1 QWE373   0.0000
    40 C2'1    16.8730 -13.0595  16.1913   C.2       1 QWE373   0.0000
    41 C42     18.1696 -14.9404  13.5582   C.2       1 QWE373   0.0000
    42 N3      18.0795 -13.7485  14.1924   N.2       1 QWE373   0.0000
    43 H1      18.1965 -17.7904  20.6881   H         1 QWE373   0.0000
    44 H2      22.8362 -17.0344  24.8881   H         1 QWE373   0.0000
    45 H3      23.6698 -15.6126  25.5559   H         1 QWE373   0.0000
    46 H4      22.6158 -16.5958  26.5974   H         1 QWE373   0.0000
    47 H5      14.3447 -15.7504  23.3795   H         1 QWE373   0.0000
    48 H6      12.6621  -9.8475  23.6421   H         1 QWE373   0.0000
    49 H7      12.9576 -10.8874  22.2557   H         1 QWE373   0.0000
    50 H8      19.7498 -15.0461  27.1148   H         1 QWE373   0.0000
    51 H9      16.4349 -16.7845  24.9777   H         1 QWE373   0.0000
    52 H10     21.4183 -13.3277  24.3996   H         1 QWE373   0.0000
    53 H11     23.0530 -14.0182  24.5158   H         1 QWE373   0.0000
    54 H12     21.9385 -14.5798  23.2490   H         1 QWE373   0.0000
    55 H13     18.4866 -12.7202  22.4644   H         1 QWE373   0.0000
    56 H14     18.1867 -11.7540  21.0019   H         1 QWE373   0.0000
    57 H15     19.5026 -12.6016  18.7090   H         1 QWE373   0.0000
    58 H16     20.6320 -13.9539  18.9505   H         1 QWE373   0.0000
    59 H17     15.6259 -15.8074  20.6172   H         1 QWE373   0.0000
    60 H18     13.9490 -12.9104  22.5468   H         1 QWE373   0.0000
    61 H19     13.1719 -14.4478  22.9884   H         1 QWE373   0.0000
    62 H20     11.3925 -13.9759  21.2703   H         1 QWE373   0.0000
    63 H21     12.1335 -12.3820  21.0006   H         1 QWE373   0.0000
    64 H22     10.5623 -13.2465  23.2596   H         1 QWE373   0.0000
    65 H23     17.3830 -15.8116  27.0299   H         1 QWE373   0.0000
    66 H24     13.3333 -15.1254  20.5601   H         1 QWE373   0.0000
    67 H25     14.3065 -13.6636  20.2800   H         1 QWE373   0.0000
    68 H26     16.4225 -14.9687  19.3786   H         1 QWE373   0.0000
    69 H27     20.4889 -12.3400  20.9586   H         1 QWE373   0.0000
    70 H28     20.1349 -14.0327  21.3734   H         1 QWE373   0.0000
    71 H29     19.0649 -15.2209  13.0053   H         1 QWE373   0.0000
    72 H30     18.4322 -14.6898  17.8260   H         1 QWE373   0.0000
    73 H31     18.7337 -15.5430  19.3569   H         1 QWE373   0.0000
    74 H32     17.5053 -12.4788  18.4032   H         1 QWE373   0.0000
    75 H33     15.9206 -12.5646  19.2056   H         1 QWE373   0.0000
    76 H34     20.6101 -17.2549  20.8262   H         1 QWE373   0.0000
    77 H35     15.0036 -13.1240  17.1922   H         1 QWE373   0.0000
    78 H36     15.9225 -14.6461  17.2306   H         1 QWE373   0.0000
    79 H37     11.0079 -10.4905  25.2160   H         1 QWE373   0.0000
    80 H38     10.1249 -11.9882  24.9557   H         1 QWE373   0.0000
    81 H39     21.5661 -16.3874  22.9316   H         1 QWE373   0.0000
    82 H40     17.0290 -16.7669  13.1682   H         1 QWE373   0.0000
@<TRIPOS>BOND
     1     1     2   ar
     2     1    10   ar
     3     1    14    1
     4     2     3   ar
     5     3     4   ar
     6     4     5   ar
     7     5     6   ar
     8     5    10   ar
     9     6     7   ar
    10     6    11    1
    11     7     8   ar
    12     8     9   ar
    13     9    10   ar
    14    11    12    1
    15    11    13    1
    16    14    15    2
    17    14    16    2
    18    14    17    1
    19    17    18    1
    20    18    19    1
    21    18    21    1
    22    19    20    2
    23    19    28   am
    24    21    22    1
    25    22    23    1
    26    23    24    1
    27    24    25    1
    28    25    26   ar
    29    25    27   ar
    30    28    29    1
    31    28    33    1
    32    29    30    1
    33    29    34    1
    34    30    31    1
    35    31    32    1
    36    32    33    1
    37    34    35    1
    38    35    40    1
    39    36    38    1
    40    36    39    1
    41    37    40    2
    42    38    41    2
    43    39    40    1
    44    39    42    2
    45    41    42    1
    46     2    43    1
    47    13    44    1
    48    13    45    1
    49    13    46    1
    50    17    47    1
    51    26    48    1
    52    26    49    1
    53     7    50    1
    54     9    51    1
    55    12    52    1
    56    12    53    1
    57    12    54    1
    58    33    55    1
    59    33    56    1
    60    31    57    1
    61    31    58    1
    62    18    59    1
    63    22    60    1
    64    22    61    1
    65    23    62    1
    66    23    63    1
    67    24    64    1
    68     8    65    1
    69    21    66    1
    70    21    67    1
    71    29    68    1
    72    32    69    1
    73    32    70    1
    74    41    71    1
    75    30    72    1
    76    30    73    1
    77    34    74    1
    78    34    75    1
    79     3    76    1
    80    35    77    1
    81    35    78    1
    82    27    79    1
    83    27    80    1
    84     4    81    1
    85    38    82    1
@<TRIPOS>SUBSTRUCTURE
     1 QWE373      1 GROUP             0 H     QWE     0  
@<TRIPOS>MOLECULE
H:T291
    71    72     1     0     0
SMALL
USER_CHARGES
****
Generated from the CSD

@<TRIPOS>ATOM
     1 N1A     10.1799 -12.6272  24.5025   N.pl3     1 T291   1.0000
     2 N1B     10.6168 -10.4099  24.9603   N.pl3     1 T291   0.0000
     3 C1      10.9507 -11.5979  24.2548   C.2       1 T291   0.0000
     4 S2      12.2806 -11.2853  23.0946   S.3       1 T291   0.0000
     5 C3      12.3133 -12.8110  22.2466   C.3       1 T291   0.0000
     6 C4      13.5750 -12.7891  21.3789   C.3       1 T291   0.0000
     7 C5      13.7448 -11.5328  20.5558   C.3       1 T291   0.0000
     8 C6      14.9520 -11.8081  19.5898   C.3       1 T291   0.0000
     9 B       15.0575 -10.7607  18.4725   B         1 T291   0.0000
    10 O1A     13.9830 -10.4790  17.5597   O.3       1 T291   0.0000
    11 O1B     16.2004 -10.8398  17.6695   O.3       1 T291   0.0000
    12 N7      16.2440 -11.7140  20.3767   N.am      1 T291   0.0000
    13 C8      16.8645 -13.0052  20.5927   C.2       1 T291   0.0000
    14 O8      16.6506 -14.0756  20.0020   O.2       1 T291   0.0000
    15 C9      18.2057 -12.9047  21.2936   C.3       1 T291   0.0000
    16 C9A     19.4110 -12.7405  20.2716   C.3       1 T291   0.0000
    17 C9B     20.4039 -13.9552  20.5777   C.3       1 T291   0.0000
    18 C9C     19.6640 -15.0006  21.4497   C.3       1 T291   0.0000
    19 N10     18.5700 -14.1477  21.9947   N.am      1 T291   0.0000
    20 C11     17.5824 -14.6330  22.8891   C.2       1 T291   0.0000
    21 O11     16.5369 -13.9843  23.1700   O.2       1 T291   0.0000
    22 C12     17.7894 -15.9914  23.5159   C.3       1 T291   0.0000
    23 C13     18.0939 -15.9146  25.0939   C.3       1 T291   0.0000
    24 C21     19.5775 -15.4587  25.2158   C.ar      1 T291   0.0000
    25 C22     19.8566 -14.2286  25.8502   C.ar      1 T291   0.0000
    26 C23     21.1651 -13.6914  25.8750   C.ar      1 T291   0.0000
    27 C24     22.2337 -14.4311  25.2690   C.ar      1 T291   0.0000
    28 C25     21.9557 -15.7008  24.6699   C.ar      1 T291   0.0000
    29 C26     20.6530 -16.1901  24.6417   C.ar      1 T291   0.0000
    30 N14     16.5578 -16.6870  23.4087   N.3       1 T291   0.0000
    31 C15     16.6262 -18.0894  22.9036   C.3       1 T291   0.0000
    32 O15     17.6913 -18.6462  23.1548   O.3       1 T291   0.0000
    33 C16     16.0533 -18.3678  21.4949   C.3       1 T291   0.0000
    34 C17     14.5210 -18.3566  21.6316   C.3       1 T291   0.0000
    35 H1      13.9632 -10.6838  21.2019   H         1 T291   0.0000
    36 H2      12.8408 -11.3303  19.9835   H         1 T291   0.0000
    37 H3      19.9155 -11.7883  20.4289   H         1 T291   0.0000
    38 H4      19.0494 -12.7945  19.2458   H         1 T291   0.0000
    39 H5      21.2784 -13.5867  21.1119   H         1 T291   0.0000
    40 H6      20.7175 -14.4157  19.6420   H         1 T291   0.0000
    41 H7      20.3024 -15.3941  22.2394   H         1 T291   0.0000
    42 H8      19.2759 -15.8244  20.8524   H         1 T291   0.0000
    43 H9      13.1894 -10.1673  18.0687   H         1 T291   0.0000
    44 H10     18.1969 -12.0715  21.9948   H         1 T291   0.0000
    45 H11     16.6329 -10.8400  20.7159   H         1 T291   0.0000
    46 H12     10.3520 -13.5134  24.0386   H         1 T291   0.0000
    47 H13      9.4105 -12.5387  25.1585   H         1 T291   0.0000
    48 H14     11.1660  -9.5673  24.8238   H         1 T291   0.0000
    49 H15      9.8293 -10.4043  25.6006   H         1 T291   0.0000
    50 H16     17.9580 -16.8920  25.5546   H         1 T291   0.0000
    51 H17     17.4343 -15.1926  25.5730   H         1 T291   0.0000
    52 H18     11.4272 -12.9151  21.6221   H         1 T291   0.0000
    53 H19     12.3567 -13.6364  22.9556   H         1 T291   0.0000
    54 H20     16.2303 -11.7261  17.2227   H         1 T291   0.0000
    55 H21     13.5356 -13.6390  20.6992   H         1 T291   0.0000
    56 H22     14.4400 -12.8872  22.0332   H         1 T291   0.0000
    57 H23     14.8569 -12.8021  19.1553   H         1 T291   0.0000
    58 H24     18.5805 -16.5336  23.0001   H         1 T291   0.0000
    59 H25     14.1963 -17.3834  21.9968   H         1 T291   0.0000
    60 H26     14.0685 -18.5492  20.6600   H         1 T291   0.0000
    61 H27     14.2137 -19.1292  22.3348   H         1 T291   0.0000
    62 H28     15.9253 -18.6112  23.5534   H         1 T291   0.0000
    63 H29     23.2464 -14.0307  25.2646   H         1 T291   0.0000
    64 H30     15.9606 -16.1612  22.7785   H         1 T291   0.0000
    65 H31     17.8250 -18.6765  24.1383   H         1 T291   0.0000
    66 H32     21.3581 -12.7296  26.3478   H         1 T291   0.0000
    67 H33     22.7652 -16.2854  24.2353   H         1 T291   0.0000
    68 H34     19.0470 -13.6815  26.3309   H         1 T291   0.0000
    69 H35     16.3913 -19.3394  21.1374   H         1 T291   0.0000
    70 H36     16.3739 -17.5936  20.7994   H         1 T291   0.0000
    71 H37     20.4538 -17.1515  24.1707   H         1 T291   0.0000
@<TRIPOS>BOND
     1     1     3    2
     2     2     3    1
     3     3     4    1
     4     4     5    1
     5     5     6    1
     6     6     7    1
     7     7     8    1
     8     8     9    1
     9     8    12    1
    10     9    10    1
    11     9    11    1
    12    12    13   am
    13    13    14    2
    14    13    15    1
    15    15    16    1
    16    15    19    1
    17    16    17    1
    18    17    18    1
    19    18    19    1
    20    19    20   am
    21    20    21    2
    22    20    22    1
    23    22    23    1
    24    22    30    1
    25    23    24    1
    26    24    25   ar
    27    24    29   ar
    28    25    26   ar
    29    26    27   ar
    30    27    28   ar
    31    28    29   ar
    32    30    31    1
    33    31    32    1
    34    31    33    1
    35    33    34    1
    36     7    35    1
    37     7    36    1
    38    16    37    1
    39    16    38    1
    40    17    39    1
    41    17    40    1
    42    18    41    1
    43    18    42    1
    44    10    43    1
    45    15    44    1
    46    12    45    1
    47     1    46    1
    48     1    47    1
    49     2    48    1
    50     2    49    1
    51    23    50    1
    52    23    51    1
    53     5    52    1
    54     5    53    1
    55    11    54    1
    56     6    55    1
    57     6    56    1
    58     8    57    1
    59    22    58    1
    60    34    59    1
    61    34    60    1
    62    34    61    1
    63    31    62    1
    64    27    63    1
    65    30    64    1
    66    32    65    1
    67    26    66    1
    68    28    67    1
    69    25    68    1
    70    33    69    1
    71    33    70    1
    72    29    71    1
@<TRIPOS>SUBSTRUCTURE
     1 T291        1 GROUP             0 H     T29     0  
@<TRIPOS>MOLECULE
B:8961250
    55    56     1     0     0
SMALL
NO_CHARGES
****
Generated from the CSD

@<TRIPOS>ATOM
     1 O2      19.0367 -17.0753  23.8975   O.2       1 8961250   0.0000
     2 C21     19.6753 -15.8723  24.0676   C.2       1 8961250   0.0000
     3 N2      20.5884 -15.6891  24.9259   N.am      1 8961250   0.0000
     4 C6      20.8573 -16.8273  25.9394   C.3       1 8961250   0.0000
     5 C5      19.6426 -17.0584  26.7717   C.3       1 8961250   0.0000
     6 C22     21.1918 -14.3159  25.2153   C.3       1 8961250   0.0000
     7 C24     20.8622 -13.9391  26.6904   C.3       1 8961250   0.0000
     8 C23     22.6001 -14.3646  24.9045   C.3       1 8961250   0.0000
     9 C17     19.2009 -14.8827  23.0554   C.ar      1 8961250   0.0000
    10 C16     17.8414 -14.4110  23.0735   C.ar      1 8961250   0.0000
    11 C14     17.5394 -13.4912  22.1264   C.ar      1 8961250   0.0000
    12 C15     18.3293 -13.0751  21.2434   C.ar      1 8961250   0.0000
    13 C19     19.6271 -13.4281  21.1202   C.ar      1 8961250   0.0000
    14 C20     20.6198 -13.0472  20.1530   C.3       1 8961250   0.0000
    15 C18     20.0526 -14.4497  22.1470   C.ar      1 8961250   0.0000
    16 O3      16.1765 -13.1071  22.2715   O.3       1 8961250   0.0000
    17 C1      15.6404 -12.4109  21.0556   C.3       1 8961250   0.0000
    18 C7      14.1488 -12.1677  21.4416   C.3       1 8961250   0.0000
    19 C8      13.4185 -11.7830  20.1506   C.3       1 8961250   0.0000
    20 N3      13.9803 -11.1362  22.3801   N.pl3     1 8961250   0.0000
    21 C9      12.9072 -10.9611  23.1806   C.ar      1 8961250   0.0000
    22 C10     12.7344  -9.9087  24.0099   C.ar      1 8961250   0.0000
    23 C11     11.5665  -9.7383  24.8717   C.ar      1 8961250   0.0000
    24 N4      10.7516 -10.8265  24.7369   N.ar      1 8961250   0.0000
    25 C12     10.8406 -11.8370  24.0125   C.ar      1 8961250   0.0000
    26 C13     11.8884 -11.9942  23.1128   C.ar      1 8961250   0.0000
    27 H1      22.7312 -14.6158  23.8530   H         1 8961250   0.0000
    28 H2      23.0497 -13.3931  25.1044   H         1 8961250   0.0000
    29 H3      23.0820 -15.1216  25.5214   H         1 8961250   0.0000
    30 H4      20.7191 -13.5865  24.5593   H         1 8961250   0.0000
    31 H5      21.2901 -14.6841  27.3596   H         1 8961250   0.0000
    32 H6      21.2841 -12.9614  26.9183   H         1 8961250   0.0000
    33 H7      19.7819 -13.9085  26.8245   H         1 8961250   0.0000
    34 H8      17.1088 -14.7677  23.7960   H         1 8961250   0.0000
    35 H9      20.7607 -11.9678  20.1832   H         1 8961250   0.0000
    36 H10     21.5614 -13.5428  20.3847   H         1 8961250   0.0000
    37 H11     20.2895 -13.3424  19.1582   H         1 8961250   0.0000
    38 H12     21.0722 -14.8323  22.1373   H         1 8961250   0.0000
    39 H13     13.7230 -13.0888  21.8368   H         1 8961250   0.0000
    40 H14     11.3764  -8.8820  25.5172   H         1 8961250   0.0000
    41 H15     11.9413 -12.8264  22.4124   H         1 8961250   0.0000
    42 H16     21.6897 -16.5486  26.5839   H         1 8961250   0.0000
    43 H17     21.1055 -17.7404  25.4004   H         1 8961250   0.0000
    44 H18     18.8096 -17.3380  26.1285   H         1 8961250   0.0000
    45 H19     19.8370 -17.8599  27.4829   H         1 8961250   0.0000
    46 H20     19.3938 -16.1462  27.3120   H         1 8961250   0.0000
    47 H21     15.7211 -13.0424  20.1720   H         1 8961250   0.0000
    48 H22     16.1602 -11.4706  20.8784   H         1 8961250   0.0000
    49 H23     17.9340 -12.3690  20.5146   H         1 8961250   0.0000
    50 H24     10.0808 -12.6137  24.0861   H         1 8961250   0.0000
    51 H25     13.5051 -12.5940  19.4290   H         1 8961250   0.0000
    52 H26     12.3670 -11.6018  20.3685   H         1 8961250   0.0000
    53 H27     13.8643 -10.8797  19.7367   H         1 8961250   0.0000
    54 H28     14.7337 -10.4611  22.4640   H         1 8961250   0.0000
    55 H29     13.5092  -9.1440  24.0377   H         1 8961250   0.0000
@<TRIPOS>BOND
     1     1     2    2
     2     2     3   am
     3     2     9    1
     4     3     4    1
     5     3     6    1
     6     4     5    1
     7     6     7    1
     8     6     8    1
     9     9    10   ar
    10     9    15   ar
    11    10    11   ar
    12    11    12   ar
    13    11    16    1
    14    12    13   ar
    15    13    14    1
    16    13    15   ar
    17    16    17    1
    18    17    18    1
    19    18    19    1
    20    18    20    1
    21    20    21    1
    22    21    22   ar
    23    21    26   ar
    24    22    23   ar
    25    23    24   ar
    26    24    25   ar
    27    25    26   ar
    28     8    27    1
    29     8    28    1
    30     8    29    1
    31     6    30    1
    32     7    31    1
    33     7    32    1
    34     7    33    1
    35    10    34    1
    36    14    35    1
    37    14    36    1
    38    14    37    1
    39    15    38    1
    40    18    39    1
    41    23    40    1
    42    26    41    1
    43     4    42    1
    44     4    43    1
    45     5    44    1
    46     5    45    1
    47     5    46    1
    48    17    47    1
    49    17    48    1
    50    12    49    1
    51    25    50    1
    52    19    51    1
    53    19    52    1
    54    19    53    1
    55    20    54    1
    56    22    55    1
@<TRIPOS>SUBSTRUCTURE
     1 8961250     1 GROUP             0 B     896     0  
@<TRIPOS>MOLECULE
H:BAM410
    18    18     1     0     0
SMALL
USER_CHARGES
****
Generated from the CSD

@<TRIPOS>ATOM
     1 C1      11.9027 -11.7217  23.2208   C.ar      1 BAM410   0.0000
     2 C2      12.3264 -12.9053  22.6178   C.ar      1 BAM410   0.0000
     3 C3      13.2472 -12.8919  21.5800   C.ar      1 BAM410   0.0000
     4 C4      13.7703 -11.6971  21.1141   C.ar      1 BAM410   0.0000
     5 C5      13.3775 -10.5208  21.6800   C.ar      1 BAM410   0.0000
     6 C6      12.4556 -10.5372  22.7189   C.ar      1 BAM410   0.0000
     7 C       10.9809 -11.7179  24.2805   C.2       1 BAM410   0.0000
     8 N1      10.4032 -12.8358  24.6009   N.pl3     1 BAM410   1.0000
     9 N2      10.7105 -10.6106  24.9405   N.pl3     1 BAM410   0.0000
    10 H1      12.1504  -9.5900  23.1611   H         1 BAM410   0.0000
    11 H2      14.4924 -11.6974  20.2990   H         1 BAM410   0.0000
    12 H3       9.7330 -12.8606  25.3628   H         1 BAM410   0.0000
    13 H4      10.6218 -13.6849  24.0895   H         1 BAM410   0.0000
    14 H5      10.0417 -10.6253  25.7038   H         1 BAM410   0.0000
    15 H6      11.1710  -9.7427  24.6858   H         1 BAM410   0.0000
    16 H7      11.9277 -13.8565  22.9673   H         1 BAM410   0.0000
    17 H8      13.5620 -13.8308  21.1270   H         1 BAM410   0.0000
    18 H9      13.7830  -9.5762  21.3207   H         1 BAM410   0.0000
@<TRIPOS>BOND
     1     1     2   ar
     2     1     6   ar
     3     1     7    1
     4     2     3   ar
     5     3     4   ar
     6     4     5   ar
     7     5     6   ar
     8     7     8    2
     9     7     9    1
    10     6    10    1
    11     4    11    1
    12     8    12    1
    13     8    13    1
    14     9    14    1
    15     9    15    1
    16     2    16    1
    17     3    17    1
    18     5    18    1
@<TRIPOS>SUBSTRUCTURE
     1 BAM410      1 GROUP             0 H     BAM     0  
@<TRIPOS>MOLECULE
H:Y4L1253
    25    25     1     0     0
SMALL
NO_CHARGES
****
Generated from the CSD

@<TRIPOS>ATOM
     1 CL      12.3425  -8.5655  25.0201   Cl        1 Y4L1253   0.0000
     2 C5      12.0904 -10.0712  24.2144   C.ar      1 Y4L1253   0.0000
     3 C4      11.0774 -10.9053  24.6433   C.ar      1 Y4L1253   0.0000
     4 C3      10.8361 -12.0850  23.9461   C.ar      1 Y4L1253   0.0000
     5 C6      12.9041 -10.4101  23.1482   C.ar      1 Y4L1253   0.0000
     6 C7      12.6769 -11.5965  22.4760   C.ar      1 Y4L1253   0.0000
     7 C2      11.6319 -12.4352  22.8559   C.ar      1 Y4L1253   0.0000
     8 N1      11.3900 -13.6382  22.1158   N.pl3     1 Y4L1253   0.0000
     9 S       12.1192 -14.1034  20.7195   S.o2      1 Y4L1253   0.0000
    10 O       11.3456 -15.1599  20.1585   O.2       1 Y4L1253   0.0000
    11 O1      12.4372 -12.9837  19.8973   O.2       1 Y4L1253   0.0000
    12 N       13.4843 -14.7299  21.2523   N.3       1 Y4L1253   0.0000
    13 C1      14.4966 -15.0345  20.2341   C.3       1 Y4L1253   0.0000
    14 C       13.3622 -15.7520  22.2961   C.3       1 Y4L1253   0.0000
    15 H1      14.7697 -14.1205  19.7089   H         1 Y4L1253   0.0000
    16 H2      15.3792 -15.4548  20.7141   H         1 Y4L1253   0.0000
    17 H3      14.0921 -15.7542  19.5240   H         1 Y4L1253   0.0000
    18 H4      10.4768 -10.6441  25.5134   H         1 Y4L1253   0.0000
    19 H5      10.6929 -14.2710  22.4954   H         1 Y4L1253   0.0000
    20 H6      13.3198 -11.8774  21.6431   H         1 Y4L1253   0.0000
    21 H7      13.7142  -9.7499  22.8419   H         1 Y4L1253   0.0000
    22 H8      10.0211 -12.7386  24.2535   H         1 Y4L1253   0.0000
    23 H9      12.7748 -16.5878  21.9187   H         1 Y4L1253   0.0000
    24 H10     14.3537 -16.1032  22.5780   H         1 Y4L1253   0.0000
    25 H11     12.8674 -15.3244  23.1668   H         1 Y4L1253   0.0000
@<TRIPOS>BOND
     1     1     2    1
     2     2     3   ar
     3     2     5   ar
     4     3     4   ar
     5     4     7   ar
     6     5     6   ar
     7     6     7   ar
     8     7     8    1
     9     8     9    1
    10     9    10    2
    11     9    11    2
    12     9    12    1
    13    12    13    1
    14    12    14    1
    15    13    15    1
    16    13    16    1
    17    13    17    1
    18     3    18    1
    19     8    19    1
    20     6    20    1
    21     5    21    1
    22     4    22    1
    23    14    23    1
    24    14    24    1
    25    14    25    1
@<TRIPOS>SUBSTRUCTURE
     1 Y4L1253     1 GROUP             0 H     Y4L     0  
@<TRIPOS>MOLECULE
H:32U1000
    57    59     1     0     0
SMALL
USER_CHARGES
****
Generated from the CSD

@<TRIPOS>ATOM
     1 N13     16.4853 -16.8780  23.7551   N.3       1 32U1000   0.0000
     2 C5      17.7820 -16.1644  23.8179   C.3       1 32U1000   0.0000
     3 C14     17.7078 -14.8115  23.1582   C.2       1 32U1000   0.0000
     4 O32     16.8094 -14.0498  23.5048   O.2       1 32U1000   0.0000
     5 C33     18.2787 -16.0562  25.2882   C.3       1 32U1000   0.0000
     6 C6      19.7095 -15.5478  25.3435   C.ar      1 32U1000   0.0000
     7 C8      20.7820 -16.3581  24.9601   C.ar      1 32U1000   0.0000
     8 C12     19.9699 -14.2538  25.7838   C.ar      1 32U1000   0.0000
     9 C9      22.0859 -15.8673  25.0189   C.ar      1 32U1000   0.0000
    10 C11     21.2657 -13.7621  25.8447   C.ar      1 32U1000   0.0000
    11 C10     22.3422 -14.5723  25.4582   C.ar      1 32U1000   0.0000
    12 N1      18.5951 -14.4152  22.2003   N.am      1 32U1000   0.0000
    13 C1      18.4543 -13.1180  21.5865   C.3       1 32U1000   0.0000
    14 C7      17.1046 -13.0460  20.8939   C.2       1 32U1000   0.0000
    15 O22     16.6600 -14.0164  20.2955   O.2       1 32U1000   0.0000
    16 C2      19.5428 -13.1976  20.4748   C.3       1 32U1000   0.0000
    17 C3      20.6108 -14.0747  21.1724   C.3       1 32U1000   0.0000
    18 C4      19.7796 -15.1974  21.8462   C.3       1 32U1000   0.0000
    19 N23     16.4832 -11.8440  20.9557   N.am      1 32U1000   0.0000
    20 C24     15.2015 -11.7933  20.2192   C.3       1 32U1000   0.0000
    21 C25     14.0992 -11.7723  21.2938   C.ar      1 32U1000   0.0000
    22 C26     13.6841 -12.9629  21.8755   C.ar      1 32U1000   0.0000
    23 C27     12.6897 -12.9717  22.8502   C.ar      1 32U1000   0.0000
    24 C28     12.0863 -11.7798  23.2611   C.ar      1 32U1000   0.0000
    25 C21     10.9362 -11.7614  24.3839   C.2       1 32U1000   0.0000
    26 N46     10.6417 -10.6229  24.9938   N.pl3     1 32U1000   0.0000
    27 N47     10.2929 -12.8651  24.6929   N.pl3     1 32U1000   1.0000
    28 C29     12.5124 -10.5961  22.6705   C.ar      1 32U1000   0.0000
    29 C30     13.5097 -10.5794  21.6926   C.ar      1 32U1000   0.0000
    30 H1      12.0564  -9.6563  22.9783   H         1 32U1000   0.0000
    31 H2      18.6183 -12.2978  22.2839   H         1 32U1000   0.0000
    32 H3      16.8626 -11.0501  21.4616   H         1 32U1000   0.0000
    33 H4      15.0945 -12.6711  19.5837   H         1 32U1000   0.0000
    34 H5      15.1514 -10.8938  19.6072   H         1 32U1000   0.0000
    35 H6       9.9171 -10.6004  25.7042   H         1 32U1000   0.0000
    36 H7      11.1407  -9.7731  24.7507   H         1 32U1000   0.0000
    37 H8      23.3626 -14.1943  25.5011   H         1 32U1000   0.0000
    38 H9      21.1612 -13.4994  21.9154   H         1 32U1000   0.0000
    39 H10     21.3076 -14.4899  20.4458   H         1 32U1000   0.0000
    40 H11     12.3794 -13.9155  23.2962   H         1 32U1000   0.0000
    41 H12     19.9341 -12.2121  20.2265   H         1 32U1000   0.0000
    42 H13     19.1602 -13.6739  19.5733   H         1 32U1000   0.0000
    43 H14      9.5674 -12.8479  25.4026   H         1 32U1000   0.0000
    44 H15     10.5215 -13.7346  24.2219   H         1 32U1000   0.0000
    45 H16     18.5106 -16.7583  23.2680   H         1 32U1000   0.0000
    46 H17     18.2321 -17.0398  25.7532   H         1 32U1000   0.0000
    47 H18     17.6346 -15.3667  25.8320   H         1 32U1000   0.0000
    48 H19     20.5990 -17.3745  24.6147   H         1 32U1000   0.0000
    49 H20     21.4466 -12.7462  26.1928   H         1 32U1000   0.0000
    50 H21     22.9145 -16.5062  24.7170   H         1 32U1000   0.0000
    51 H22     19.5451 -16.0048  21.1540   H         1 32U1000   0.0000
    52 H23     20.2783 -15.6053  22.7241   H         1 32U1000   0.0000
    53 H24     16.2187 -17.0106  22.7848   H         1 32U1000   0.0000
    54 H25     16.5744 -17.7819  24.2081   H         1 32U1000   0.0000
    55 H26     14.1419 -13.9012  21.5656   H         1 32U1000   0.0000
    56 H27     13.8232  -9.6370  21.2458   H         1 32U1000   0.0000
    57 H28     19.1412 -13.6152  26.0862   H         1 32U1000   0.0000
@<TRIPOS>BOND
     1     1     2    1
     2     2     3    1
     3     2     5    1
     4     3     4    2
     5     3    12   am
     6     5     6    1
     7     6     7   ar
     8     6     8   ar
     9     7     9   ar
    10     8    10   ar
    11     9    11   ar
    12    10    11   ar
    13    12    13    1
    14    12    18    1
    15    13    14    1
    16    13    16    1
    17    14    15    2
    18    14    19   am
    19    16    17    1
    20    17    18    1
    21    19    20    1
    22    20    21    1
    23    21    22   ar
    24    21    29   ar
    25    22    23   ar
    26    23    24   ar
    27    24    25    1
    28    24    28   ar
    29    25    26    1
    30    25    27    2
    31    28    29   ar
    32    28    30    1
    33    13    31    1
    34    19    32    1
    35    20    33    1
    36    20    34    1
    37    26    35    1
    38    26    36    1
    39    11    37    1
    40    17    38    1
    41    17    39    1
    42    23    40    1
    43    16    41    1
    44    16    42    1
    45    27    43    1
    46    27    44    1
    47     2    45    1
    48     5    46    1
    49     5    47    1
    50     7    48    1
    51    10    49    1
    52     9    50    1
    53    18    51    1
    54    18    52    1
    55     1    53    1
    56     1    54    1
    57    22    55    1
    58    29    56    1
    59     8    57    1
@<TRIPOS>SUBSTRUCTURE
     1 32U1000     1 GROUP             0 H     32U     0  
@<TRIPOS>MOLECULE
B:C24999
    67    70     1     0     0
SMALL
USER_CHARGES
****
Generated from the CSD

@<TRIPOS>ATOM
     1 C2      14.1605 -11.8056  21.0576   C.ar      1 C24999   0.0000
     2 N10     15.1606 -11.9695  20.1996   N.pl3     1 C24999   0.0000
     3 C11     16.5647 -11.6799  20.4904   C.3       1 C24999   0.0000
     4 C12     17.3383 -12.7247  21.2990   C.2       1 C24999   0.0000
     5 N16     16.7119 -13.4786  22.2087   N.2       1 C24999   0.0000
     6 C15     17.7549 -14.1805  22.6782   C.ar      1 C24999   0.0000
     7 C18     17.6697 -15.1128  23.6655   C.ar      1 C24999   0.0000
     8 C19     18.7630 -15.7877  24.1084   C.ar      1 C24999   0.0000
     9 C40     18.5914 -16.7399  25.1752   C.2       1 C24999   0.0000
    10 O21     17.5923 -17.4657  25.0729   O.2       1 C24999   0.0000
    11 N22     19.3935 -16.7961  26.2664   N.am      1 C24999   0.0000
    12 C23     20.3635 -15.8784  26.4487   C.ar      1 C24999   0.0000
    13 C24     20.0091 -14.6904  27.0106   C.ar      1 C24999   0.0000
    14 C25     20.8911 -13.6173  27.0687   C.ar      1 C24999   0.0000
    15 C26     22.1575 -13.7473  26.5471   C.ar      1 C24999   0.0000
    16 C27     22.5400 -14.9543  25.9774   C.ar      1 C24999   0.0000
    17 N28     21.5999 -16.0243  25.9400   N.ar      1 C24999   0.0000
    18 C29     19.1859 -17.7992  27.3139   C.3       1 C24999   0.0000
    19 C30     18.0846 -17.4102  28.2888   C.3       1 C24999   0.0000
    20 C31     17.9843 -18.3437  29.4820   C.2       1 C24999   0.0000
    21 O32     18.5423 -18.0664  30.5444   O.2       1 C24999   0.0000
    22 O33     17.1891 -19.5600  29.4031   O.3       1 C24999   0.0000
    23 C34     17.9488 -20.7351  29.0015   C.3       1 C24999   0.0000
    24 C35     18.7896 -21.2425  30.1642   C.3       1 C24999   0.0000
    25 C20     19.9552 -15.4193  23.4631   C.ar      1 C24999   0.0000
    26 C21     20.0506 -14.4581  22.4469   C.ar      1 C24999   0.0000
    27 C14     18.9128 -13.8461  22.0827   C.ar      1 C24999   0.0000
    28 N13     18.6646 -12.8993  21.1617   N.pl3     1 C24999   0.0000
    29 C17     19.6009 -12.2499  20.2285   C.3       1 C24999   0.0000
    30 C3      14.1477 -10.8288  21.9710   C.ar      1 C24999   0.0000
    31 C4      13.1021 -10.7528  22.8916   C.ar      1 C24999   0.0000
    32 C5      12.0931 -11.6518  22.9051   C.ar      1 C24999   0.0000
    33 C7      11.0931 -11.6060  23.8639   C.2       1 C24999   0.0000
    34 N9      11.0614 -10.6372  24.7772   N.pl3     1 C24999   0.0000
    35 N8      10.1480 -12.5391  23.8947   N.pl3     1 C24999   1.0000
    36 C6      12.1290 -12.6126  21.9679   C.ar      1 C24999   0.0000
    37 C1      13.1696 -12.6925  21.0462   C.ar      1 C24999   0.0000
    38 H1      11.3254 -13.3465  21.9277   H         1 C24999   0.0000
    39 H2      20.8724 -15.9168  23.7750   H         1 C24999   0.0000
    40 H3      14.9515 -10.0944  21.9961   H         1 C24999   0.0000
    41 H4      13.1722 -13.4916  20.3064   H         1 C24999   0.0000
    42 H5      21.0027 -14.2193  21.9753   H         1 C24999   0.0000
    43 H6      19.5909 -11.1737  20.3944   H         1 C24999   0.0000
    44 H7      20.6060 -12.6339  20.3968   H         1 C24999   0.0000
    45 H8      19.2981 -12.4621  19.2042   H         1 C24999   0.0000
    46 H9      13.0989  -9.9447  23.6215   H         1 C24999   0.0000
    47 H10     10.3219 -10.6188  25.4721   H         1 C24999   0.0000
    48 H11     11.7767  -9.9171  24.7782   H         1 C24999   0.0000
    49 H12      9.4186 -12.4996  24.5995   H         1 C24999   0.0000
    50 H13     10.1552 -13.2914  23.2134   H         1 C24999   0.0000
    51 H14     18.6037 -20.4733  28.1717   H         1 C24999   0.0000
    52 H15     17.2601 -21.5180  28.6873   H         1 C24999   0.0000
    53 H16     18.1376 -21.5074  30.9953   H         1 C24999   0.0000
    54 H17     19.3517 -22.1206  29.8497   H         1 C24999   0.0000
    55 H18     19.4811 -20.4626  30.4797   H         1 C24999   0.0000
    56 H19     16.5986 -10.7438  21.0459   H         1 C24999   0.0000
    57 H20     17.0783 -11.5556  19.5381   H         1 C24999   0.0000
    58 H21     16.6996 -15.3237  24.1129   H         1 C24999   0.0000
    59 H22     19.0085 -14.5775  27.4254   H         1 C24999   0.0000
    60 H23     20.5810 -12.6784  27.5249   H         1 C24999   0.0000
    61 H24     22.8539 -12.9107  26.5808   H         1 C24999   0.0000
    62 H25     17.1332 -17.4225  27.7589   H         1 C24999   0.0000
    63 H26     18.2844 -16.4035  28.6528   H         1 C24999   0.0000
    64 H27     14.9344 -12.3213  19.2748   H         1 C24999   0.0000
    65 H28     20.1151 -17.9213  27.8686   H         1 C24999   0.0000
    66 H29     18.9172 -18.7439  26.8435   H         1 C24999   0.0000
    67 H30     23.5405 -15.0810  25.5666   H         1 C24999   0.0000
@<TRIPOS>BOND
     1     1     2    1
     2     1    30   ar
     3     1    37   ar
     4     2     3    1
     5     3     4    1
     6     4     5    2
     7     4    28    1
     8     5     6    1
     9     6     7   ar
    10     6    27   ar
    11     7     8   ar
    12     8     9    1
    13     8    25   ar
    14     9    10    2
    15     9    11   am
    16    11    12    1
    17    11    18    1
    18    12    13   ar
    19    12    17   ar
    20    13    14   ar
    21    14    15   ar
    22    15    16   ar
    23    16    17   ar
    24    18    19    1
    25    19    20    1
    26    20    21    2
    27    20    22    1
    28    22    23    1
    29    23    24    1
    30    25    26   ar
    31    26    27   ar
    32    27    28    1
    33    28    29    1
    34    30    31   ar
    35    31    32   ar
    36    32    33    1
    37    32    36   ar
    38    33    34    1
    39    33    35    2
    40    36    37   ar
    41    36    38    1
    42    25    39    1
    43    30    40    1
    44    37    41    1
    45    26    42    1
    46    29    43    1
    47    29    44    1
    48    29    45    1
    49    31    46    1
    50    34    47    1
    51    34    48    1
    52    35    49    1
    53    35    50    1
    54    23    51    1
    55    23    52    1
    56    24    53    1
    57    24    54    1
    58    24    55    1
    59     3    56    1
    60     3    57    1
    61     7    58    1
    62    13    59    1
    63    14    60    1
    64    15    61    1
    65    19    62    1
    66    19    63    1
    67     2    64    1
    68    18    65    1
    69    18    66    1
    70    16    67    1
@<TRIPOS>SUBSTRUCTURE
     1 C24999      1 GROUP             0 B     C24     0  
@<TRIPOS>MOLECULE
H:GR41
   106   110     1     0     0
SMALL
NO_CHARGES
****
Generated from the CSD

@<TRIPOS>ATOM
     1 C1      18.6244 -16.7876  23.4840   C.3       1 GR41   0.0000
     2 C2      19.4395 -17.9088  24.0923   C.3       1 GR41   0.0000
     3 C3      19.1796 -19.2167  23.3829   C.3       1 GR41   0.0000
     4 C4      19.5112 -19.0450  21.8632   C.3       1 GR41   0.0000
     5 C5      18.8986 -17.7479  21.2098   C.3       1 GR41   0.0000
     6 C6      19.2783 -17.4718  19.7412   C.3       1 GR41   0.0000
     7 C7      18.8585 -16.1093  19.2635   C.2       1 GR41   0.0000
     8 C8      18.1952 -15.2351  20.0391   C.2       1 GR41   0.0000
     9 C9      17.9045 -15.5352  21.4844   C.3       1 GR41   0.0000
    10 C10     18.9851 -16.4705  22.0292   C.3       1 GR41   0.0000
    11 C11     17.6281 -14.2910  22.3318   C.3       1 GR41   0.0000
    12 C12     16.5125 -13.4088  21.7805   C.3       1 GR41   0.0000
    13 C13     16.3244 -13.5718  20.2484   C.3       1 GR41   0.0000
    14 C14     17.7175 -13.8735  19.5796   C.3       1 GR41   0.0000
    15 C15     17.4182 -13.6924  18.0879   C.3       1 GR41   0.0000
    16 C16     16.3158 -12.6180  18.0333   C.3       1 GR41   0.0000
    17 C17     15.9033 -12.2741  19.4831   C.3       1 GR41   0.0000
    18 C18     15.3049 -14.6924  19.8784   C.3       1 GR41   0.0000
    19 C19     20.3729 -15.7894  21.9422   C.3       1 GR41   0.0000
    20 C22     14.2107 -11.0457  21.1044   C.3       1 GR41   0.0000
    21 C23     12.8254 -11.1268  21.6366   C.2       1 GR41   0.0000
    22 C24     12.4636 -10.4982  22.8903   C.2       1 GR41   0.0000
    23 C25     11.5482 -11.0169  23.7270   C.2       1 GR41   0.0000
    24 C26     11.2747 -10.3609  25.0302   C.3       1 GR41   0.0000
    25 C27     10.8016 -12.3002  23.5048   C.3       1 GR41   0.0000
    26 C28     18.8878 -12.8702  19.8796   C.2       1 GR41   0.0000
    27 C29     19.0610 -20.3154  21.1065   C.2       1 GR41   0.0000
    28 C30     21.0533 -19.0524  21.6828   C.3       1 GR41   0.0000
    29 O31     19.8228 -20.9945  20.4881   O.2       1 GR41   0.0000
    30 O32     16.8263 -11.5016  17.3637   O.3       1 GR41   0.0000
    31 O33     13.5203 -10.5767  17.7746   O.2       1 GR41   0.0000
    32 O34     17.7597 -20.6044  21.1895   O.3       1 GR41   0.0000
    33 O35     11.9633 -11.7415  21.0666   O.2       1 GR41   0.0000
    34 O36     17.8013 -19.5925  23.6589   O.3       1 GR41   0.0000
    35 C37     17.4006 -20.0563  24.8569   C.2       1 GR41   0.0000
    36 C38     15.8922 -20.0742  24.9882   C.3       1 GR41   0.0000
    37 O39     18.0962 -20.4379  25.7460   O.2       1 GR41   0.0000
    38 O1      19.9905 -12.8500  19.4062   O.2       1 GR41   0.0000
    39 O2      15.3162 -13.6777  22.4850   O.3       1 GR41   0.0000
    40 O3      16.4036 -22.5043  21.1502   O.3       1 GR41   0.0000
    41 C32     17.2985 -21.7422  21.9311   C.3       1 GR41   0.0000
    42 C33     18.3584 -22.7083  22.5202   C.3       1 GR41   0.0000
    43 C34     17.6021 -23.6279  23.5017   C.3       1 GR41   0.0000
    44 C35     16.4245 -24.3157  22.8007   C.3       1 GR41   0.0000
    45 C36     15.5802 -23.3894  21.9098   C.3       1 GR41   0.0000
    46 O4      15.5580 -24.8411  23.8353   O.3       1 GR41   0.0000
    47 O5      18.4321 -24.6491  24.1073   O.3       1 GR41   0.0000
    48 O6      19.4353 -22.1182  23.2723   O.3       1 GR41   0.0000
    49 C31     14.6811 -24.2991  21.0259   C.3       1 GR41   0.0000
    50 O7      15.3228 -24.7501  19.8207   O.3       1 GR41   0.0000
    51 C20     14.4457 -11.6805  19.6913   C.3       1 GR41   0.0000
    52 C21     14.2687 -10.5340  18.6998   C.2       1 GR41   0.0000
    53 H1      17.8308 -17.9576  21.1672   H         1 GR41   0.0000
    54 H2      19.8386 -19.9767  23.8000   H         1 GR41   0.0000
    55 H3      19.1030 -15.8179  18.2431   H         1 GR41   0.0000
    56 H4      16.9804 -16.1114  21.4897   H         1 GR41   0.0000
    57 H5      19.1712 -18.0144  25.1425   H         1 GR41   0.0000
    58 H6      20.4975 -17.6641  24.0108   H         1 GR41   0.0000
    59 H7      18.5411 -13.6996  22.3820   H         1 GR41   0.0000
    60 H8      17.3485 -14.6128  23.3339   H         1 GR41   0.0000
    61 H9      16.7844 -12.3719  21.9726   H         1 GR41   0.0000
    62 H10     18.7981 -18.2211  19.1135   H         1 GR41   0.0000
    63 H11     20.3596 -17.5545  19.6425   H         1 GR41   0.0000
    64 H12     18.7812 -15.8891  24.0790   H         1 GR41   0.0000
    65 H13     17.5732 -17.0694  23.5222   H         1 GR41   0.0000
    66 H14     21.1302 -16.4547  22.3544   H         1 GR41   0.0000
    67 H15     20.6069 -15.5741  20.9007   H         1 GR41   0.0000
    68 H16     20.3577 -14.8605  22.5104   H         1 GR41   0.0000
    69 H17     18.6710 -12.0931  20.6111   H         1 GR41   0.0000
    70 H18     14.8681 -11.5518  21.8098   H         1 GR41   0.0000
    71 H19     14.4831  -9.9929  21.0455   H         1 GR41   0.0000
    72 H20     12.9540  -9.5660  23.1668   H         1 GR41   0.0000
    73 H21     11.5099 -13.1242  23.4310   H         1 GR41   0.0000
    74 H22     10.1257 -12.4763  24.3403   H         1 GR41   0.0000
    75 H23     10.2277 -12.2312  22.5819   H         1 GR41   0.0000
    76 H24     10.9262  -9.3436  24.8584   H         1 GR41   0.0000
    77 H25     10.5094 -10.9213  25.5651   H         1 GR41   0.0000
    78 H26     12.1879 -10.3365  25.6231   H         1 GR41   0.0000
    79 H27     17.0657 -14.6258  17.6516   H         1 GR41   0.0000
    80 H28     18.3075 -13.3564  17.5566   H         1 GR41   0.0000
    81 H29     15.4546 -13.0061  17.4913   H         1 GR41   0.0000
    82 H30     21.4564 -19.9975  22.0438   H         1 GR41   0.0000
    83 H31     21.2960 -18.9335  20.6279   H         1 GR41   0.0000
    84 H32     21.4891 -18.2315  22.2504   H         1 GR41   0.0000
    85 H33     17.0952 -11.7617  16.4438   H         1 GR41   0.0000
    86 H34     14.3330 -14.4554  20.3087   H         1 GR41   0.0000
    87 H35     15.2158 -14.7589  18.7951   H         1 GR41   0.0000
    88 H36     15.6539 -15.6454  20.2731   H         1 GR41   0.0000
    89 H37     16.5916 -11.4971  19.8125   H         1 GR41   0.0000
    90 H38     15.4684 -20.7167  24.2179   H         1 GR41   0.0000
    91 H39     15.6179 -20.4558  25.9706   H         1 GR41   0.0000
    92 H40     15.5056 -19.0630  24.8706   H         1 GR41   0.0000
    93 H41     14.8575  -9.6296  18.8460   H         1 GR41   0.0000
    94 H42     15.2369 -24.0962  24.4079   H         1 GR41   0.0000
    95 H43     16.7265 -21.3552  22.7731   H         1 GR41   0.0000
    96 H44     18.7753 -23.3125  21.7158   H         1 GR41   0.0000
    97 H45     17.1997 -23.0064  24.3003   H         1 GR41   0.0000
    98 H46     16.8016 -25.1414  22.1991   H         1 GR41   0.0000
    99 H47     13.7890 -23.7381  20.7513   H         1 GR41   0.0000
   100 H48     14.3951 -25.1722  21.6106   H         1 GR41   0.0000
   101 H49     14.9357 -22.7909  22.5519   H         1 GR41   0.0000
   102 H50     19.1683 -24.2186  24.6159   H         1 GR41   0.0000
   103 H51     16.1342 -25.2730  20.0535   H         1 GR41   0.0000
   104 H52     13.7006 -12.4520  19.5028   H         1 GR41   0.0000
   105 H53     19.0642 -21.6236  24.0493   H         1 GR41   0.0000
   106 H54     15.4492 -13.4830  23.4496   H         1 GR41   0.0000
@<TRIPOS>BOND
     1     1     2    1
     2     1    10    1
     3     2     3    1
     4     3     4    1
     5     3    34    1
     6     4     5    1
     7     4    27    1
     8     4    28    1
     9     5     6    1
    10     5    10    1
    11     6     7    1
    12     7     8    2
    13     8     9    1
    14     8    14    1
    15     9    10    1
    16     9    11    1
    17    10    19    1
    18    11    12    1
    19    12    13    1
    20    12    39    1
    21    13    14    1
    22    13    17    1
    23    13    18    1
    24    14    15    1
    25    14    26    1
    26    15    16    1
    27    16    17    1
    28    16    30    1
    29    17    51    1
    30    20    21    1
    31    20    51    1
    32    21    22    1
    33    21    33    2
    34    22    23    2
    35    23    24    1
    36    23    25    1
    37    26    38    2
    38    27    29    2
    39    27    32    1
    40    31    52    2
    41    32    41    1
    42    34    35    1
    43    35    36    1
    44    35    37    2
    45    40    41    1
    46    40    45    1
    47    41    42    1
    48    42    43    1
    49    42    48    1
    50    43    44    1
    51    43    47    1
    52    44    45    1
    53    44    46    1
    54    45    49    1
    55    49    50    1
    56    51    52    1
    57     5    53    1
    58     3    54    1
    59     7    55    1
    60     9    56    1
    61     2    57    1
    62     2    58    1
    63    11    59    1
    64    11    60    1
    65    12    61    1
    66     6    62    1
    67     6    63    1
    68     1    64    1
    69     1    65    1
    70    19    66    1
    71    19    67    1
    72    19    68    1
    73    26    69    1
    74    20    70    1
    75    20    71    1
    76    22    72    1
    77    25    73    1
    78    25    74    1
    79    25    75    1
    80    24    76    1
    81    24    77    1
    82    24    78    1
    83    15    79    1
    84    15    80    1
    85    16    81    1
    86    28    82    1
    87    28    83    1
    88    28    84    1
    89    30    85    1
    90    18    86    1
    91    18    87    1
    92    18    88    1
    93    17    89    1
    94    36    90    1
    95    36    91    1
    96    36    92    1
    97    52    93    1
    98    46    94    1
    99    41    95    1
   100    42    96    1
   101    43    97    1
   102    44    98    1
   103    49    99    1
   104    49   100    1
   105    45   101    1
   106    47   102    1
   107    50   103    1
   108    51   104    1
   109    48   105    1
   110    39   106    1
@<TRIPOS>SUBSTRUCTURE
     1 GR41        1 GROUP             0 H     GR4     0  
@<TRIPOS>MOLECULE
H:3ZD1249
    69    71     1     0     0
SMALL
USER_CHARGES
****
Generated from the CSD

@<TRIPOS>ATOM
     1 C1      13.8119 -12.9336  21.9405   C.ar      1 3ZD1249   0.0000
     2 C2      14.3725 -11.7722  21.4133   C.ar      1 3ZD1249   0.0000
     3 C3      15.4838 -11.8016  20.4451   C.3       1 3ZD1249   0.0000
     4 N1      16.8132 -12.0734  21.1570   N.am      1 3ZD1249   0.0000
     5 C4      13.8259 -10.5491  21.8808   C.ar      1 3ZD1249   0.0000
     6 C5      12.8085 -10.5953  22.7804   C.ar      1 3ZD1249   0.0000
     7 C6      12.2278 -11.7316  23.3125   C.ar      1 3ZD1249   0.0000
     8 C7      11.1434 -11.6782  24.2742   C.2       1 3ZD1249   0.0000
     9 N2      10.7967 -10.5590  24.8650   N.pl3     1 3ZD1249   1.0000
    10 C8      12.7794 -12.9476  22.8509   C.ar      1 3ZD1249   0.0000
    11 N3      10.4676 -12.8075  24.5956   N.pl3     1 3ZD1249   0.0000
    12 C9      17.3597 -13.3471  21.0372   C.2       1 3ZD1249   0.0000
    13 C10     18.6911 -13.5261  21.8119   C.3       1 3ZD1249   0.0000
    14 C11     19.9730 -13.6581  20.9141   C.3       1 3ZD1249   0.0000
    15 N4      18.6887 -14.7933  22.5247   N.am      1 3ZD1249   0.0000
    16 O1      16.8525 -14.2859  20.3903   O.2       1 3ZD1249   0.0000
    17 C14     17.7601 -15.0570  23.4446   C.2       1 3ZD1249   0.0000
    18 C15     17.7617 -16.3664  24.1340   C.3       1 3ZD1249   0.0000
    19 C16     18.4301 -16.1586  25.5532   C.3       1 3ZD1249   0.0000
    20 N5      16.4780 -16.8887  24.4568   N.pl3     1 3ZD1249   0.0000
    21 O2      16.8758 -14.2333  23.7268   O.2       1 3ZD1249   0.0000
    22 S1      15.7290 -17.7578  23.2803   S.o2      1 3ZD1249   0.0000
    23 C17     15.2326 -16.5731  21.9409   C.3       1 3ZD1249   0.0000
    24 O4      16.7750 -18.7339  22.8403   O.2       1 3ZD1249   0.0000
    25 O5      14.5030 -18.3281  23.9055   O.2       1 3ZD1249   0.0000
    26 C18     11.9793 -18.1052  19.6589   C.ar      1 3ZD1249   0.0000
    27 C19     13.3096 -18.4060  19.3280   C.ar      1 3ZD1249   0.0000
    28 C20     14.4037 -17.9142  20.0646   C.ar      1 3ZD1249   0.0000
    29 C21     14.1455 -17.0953  21.1687   C.ar      1 3ZD1249   0.0000
    30 C22     12.8032 -16.7885  21.5025   C.ar      1 3ZD1249   0.0000
    31 C23     11.7271 -17.2935  20.7471   C.ar      1 3ZD1249   0.0000
    32 C24     22.3242 -14.3058  25.3829   C.ar      1 3ZD1249   0.0000
    33 C25     21.2361 -13.6437  25.9951   C.ar      1 3ZD1249   0.0000
    34 C26     19.9833 -14.2340  26.0606   C.ar      1 3ZD1249   0.0000
    35 C27     19.7667 -15.5137  25.5066   C.ar      1 3ZD1249   0.0000
    36 C28     20.8558 -16.1848  24.8895   C.ar      1 3ZD1249   0.0000
    37 C29     22.1246 -15.5581  24.8515   C.ar      1 3ZD1249   0.0000
    38 H1      17.2782 -11.3503  21.6965   H         1 3ZD1249   0.0000
    39 H2      14.2130  -9.5949  21.5266   H         1 3ZD1249   0.0000
    40 H3      14.2157 -13.8900  21.6119   H         1 3ZD1249   0.0000
    41 H4      12.4097  -9.6394  23.1167   H         1 3ZD1249   0.0000
    42 H5      15.5404 -10.8405  19.9362   H         1 3ZD1249   0.0000
    43 H6      15.3015 -12.5888  19.7150   H         1 3ZD1249   0.0000
    44 H7      16.0488 -16.7330  25.3634   H         1 3ZD1249   0.0000
    45 H8      20.0852 -12.7608  20.3073   H         1 3ZD1249   0.0000
    46 H9      20.8497 -13.7790  21.5488   H         1 3ZD1249   0.0000
    47 H10     19.8731 -14.5259  20.2639   H         1 3ZD1249   0.0000
    48 H11     18.8190 -12.7070  22.5179   H         1 3ZD1249   0.0000
    49 H12     19.4022 -15.4854  22.3197   H         1 3ZD1249   0.0000
    50 H13     10.0332 -10.5535  25.5338   H         1 3ZD1249   0.0000
    51 H14     11.2920  -9.6987  24.6531   H         1 3ZD1249   0.0000
    52 H15     12.3878 -13.8962  23.2153   H         1 3ZD1249   0.0000
    53 H16      9.7087 -12.7706  25.2686   H         1 3ZD1249   0.0000
    54 H17     10.7203 -13.6905  24.1635   H         1 3ZD1249   0.0000
    55 H18     18.3284 -17.0945  23.5553   H         1 3ZD1249   0.0000
    56 H19     18.5372 -17.1334  26.0266   H         1 3ZD1249   0.0000
    57 H20     17.7701 -15.5341  26.1536   H         1 3ZD1249   0.0000
    58 H21     16.0845 -16.4005  21.2848   H         1 3ZD1249   0.0000
    59 H22     14.9269 -15.6313  22.3942   H         1 3ZD1249   0.0000
    60 H23     11.1583 -18.5060  19.0662   H         1 3ZD1249   0.0000
    61 H24     13.5031 -19.0450  18.4677   H         1 3ZD1249   0.0000
    62 H25     15.4251 -18.1649  19.7820   H         1 3ZD1249   0.0000
    63 H26     23.3036 -13.8324  25.3330   H         1 3ZD1249   0.0000
    64 H27     20.7163 -17.1715  24.4502   H         1 3ZD1249   0.0000
    65 H28     21.3841 -12.6531  26.4225   H         1 3ZD1249   0.0000
    66 H29     22.9620 -16.0799  24.3906   H         1 3ZD1249   0.0000
    67 H30     10.7024 -17.0453  21.0195   H         1 3ZD1249   0.0000
    68 H31     19.1613 -13.7069  26.5426   H         1 3ZD1249   0.0000
    69 H32     12.5994 -16.1495  22.3604   H         1 3ZD1249   0.0000
@<TRIPOS>BOND
     1     1     2   ar
     2     1    10   ar
     3     2     3    1
     4     2     5   ar
     5     3     4    1
     6     4    12   am
     7     5     6   ar
     8     6     7   ar
     9     7     8    1
    10     7    10   ar
    11     8     9    2
    12     8    11    1
    13    12    13    1
    14    12    16    2
    15    13    14    1
    16    13    15    1
    17    15    17   am
    18    17    18    1
    19    17    21    2
    20    18    19    1
    21    18    20    1
    22    19    35    1
    23    20    22    1
    24    22    23    1
    25    22    24    2
    26    22    25    2
    27    23    29    1
    28    26    27   ar
    29    26    31   ar
    30    27    28   ar
    31    28    29   ar
    32    29    30   ar
    33    30    31   ar
    34    32    33   ar
    35    32    37   ar
    36    33    34   ar
    37    34    35   ar
    38    35    36   ar
    39    36    37   ar
    40     4    38    1
    41     5    39    1
    42     1    40    1
    43     6    41    1
    44     3    42    1
    45     3    43    1
    46    20    44    1
    47    14    45    1
    48    14    46    1
    49    14    47    1
    50    13    48    1
    51    15    49    1
    52     9    50    1
    53     9    51    1
    54    10    52    1
    55    11    53    1
    56    11    54    1
    57    18    55    1
    58    19    56    1
    59    19    57    1
    60    23    58    1
    61    23    59    1
    62    26    60    1
    63    27    61    1
    64    28    62    1
    65    32    63    1
    66    36    64    1
    67    33    65    1
    68    37    66    1
    69    31    67    1
    70    34    68    1
    71    30    69    1
@<TRIPOS>SUBSTRUCTURE
     1 3ZD1249     1 GROUP             0 H     3ZD     0  
@<TRIPOS>MOLECULE
B:BZT400
    73    78     1     0     0
SMALL
NO_CHARGES
****
Generated from the CSD

@<TRIPOS>ATOM
     1 C1      11.5209 -10.5224  24.2426   C.ar      1 BZT400   0.0000
     2 C2      11.2345 -11.5992  23.3037   C.ar      1 BZT400   0.0000
     3 C3      12.1333 -11.9881  22.2665   C.ar      1 BZT400   0.0000
     4 C4      13.3853 -11.3016  22.1241   C.ar      1 BZT400   0.0000
     5 C5      13.6816 -10.2369  23.0381   C.ar      1 BZT400   0.0000
     6 C6      12.7599  -9.8499  24.0933   C.ar      1 BZT400   0.0000
     7 S1      12.0109 -13.2073  21.0633   S.3       1 BZT400   0.0000
     8 C8      13.4798 -12.9046  20.3694   C.2       1 BZT400   0.0000
     9 C9      14.1606 -11.8274  21.0543   C.2       1 BZT400   0.0000
    10 C7      15.5742 -11.5861  20.6789   C.3       1 BZT400   0.0000
    11 C10     13.9744 -13.7137  19.1975   C.ar      1 BZT400   0.0000
    12 C12     14.6266 -13.1482  18.0105   C.ar      1 BZT400   0.0000
    13 C14     15.0854 -13.9723  16.9658   C.ar      1 BZT400   0.0000
    14 C16     14.9358 -15.3807  17.0211   C.ar      1 BZT400   0.0000
    15 C18     14.2787 -15.9402  18.2041   C.ar      1 BZT400   0.0000
    16 C20     13.7989 -15.1347  19.2920   C.ar      1 BZT400   0.0000
    17 O2      15.4557 -16.1005  15.8945   O.3       1 BZT400   0.0000
    18 C24     15.3228 -17.5823  15.9064   C.3       1 BZT400   0.0000
    19 C11     16.4462 -13.7607  21.9838   C.ar      1 BZT400   0.0000
    20 C13     16.7344 -12.6276  21.1652   C.ar      1 BZT400   0.0000
    21 C15     18.0918 -12.4474  20.7555   C.ar      1 BZT400   0.0000
    22 C32     19.1260 -13.3842  21.1603   C.ar      1 BZT400   0.0000
    23 C19     18.8428 -14.5054  21.9797   C.ar      1 BZT400   0.0000
    24 C21     17.4745 -14.6408  22.3641   C.ar      1 BZT400   0.0000
    25 BR1     20.7563 -12.9385  20.4988   Br        1 BZT400   0.0000
    26 C31     19.8510 -15.5565  22.4785   C.3       1 BZT400   0.0000
    27 C17     21.2913 -15.7350  25.9683   C.3       1 BZT400   0.0000
    28 C23     21.0910 -14.2073  25.8689   C.3       1 BZT400   0.0000
    29 C26     20.9483 -14.1153  24.2985   C.3       1 BZT400   0.0000
    30 N2      20.2637 -15.4174  23.8664   N.3       1 BZT400   0.0000
    31 C27     21.2436 -16.3462  24.5332   C.3       1 BZT400   0.0000
    32 C22     18.1796 -18.3880  13.5787   C.3       1 BZT400   0.0000
    33 N3      17.3789 -18.6982  14.7610   N.3       1 BZT400   0.0000
    34 C28     17.6204 -20.1408  14.8897   C.3       1 BZT400   0.0000
    35 C29     19.1526 -20.1284  14.9369   C.3       1 BZT400   0.0000
    36 C30     19.5698 -18.9251  14.0424   C.3       1 BZT400   0.0000
    37 C34     15.9164 -18.3122  14.6606   C.3       1 BZT400   0.0000
    38 O1      10.6651 -10.1520  25.2358   O.3       1 BZT400   0.0000
    39 H1      10.2897 -12.1324  23.3983   H         1 BZT400   0.0000
    40 H2      19.5559 -21.0589  14.5401   H         1 BZT400   0.0000
    41 H3      19.5036 -19.9868  15.9580   H         1 BZT400   0.0000
    42 H4      14.1473 -17.0197  18.2617   H         1 BZT400   0.0000
    43 H5      18.3548 -11.5952  20.1306   H         1 BZT400   0.0000
    44 H6      20.4990 -16.1686  26.5767   H         1 BZT400   0.0000
    45 H7      22.2570 -15.9480  26.4243   H         1 BZT400   0.0000
    46 H8      13.3185 -15.5867  20.1586   H         1 BZT400   0.0000
    47 H9      21.9514 -13.6521  26.2395   H         1 BZT400   0.0000
    48 H10     20.1930 -13.8731  26.3864   H         1 BZT400   0.0000
    49 H11     20.1160 -18.1754  14.6130   H         1 BZT400   0.0000
    50 H12     20.1740 -19.2487  13.1962   H         1 BZT400   0.0000
    51 H13     14.7581 -12.0697  17.9366   H         1 BZT400   0.0000
    52 H14     14.2630 -17.8252  15.9660   H         1 BZT400   0.0000
    53 H15     15.8320 -17.9592  16.7921   H         1 BZT400   0.0000
    54 H16     21.9289 -14.0293  23.8327   H         1 BZT400   0.0000
    55 H17     20.3387 -13.2562  24.0225   H         1 BZT400   0.0000
    56 H18     15.8427 -10.6080  21.0754   H         1 BZT400   0.0000
    57 H19     15.6110 -11.5593  19.5909   H         1 BZT400   0.0000
    58 H20     15.5643 -13.5194  16.0988   H         1 BZT400   0.0000
    59 H21     15.4253 -13.9444  22.3152   H         1 BZT400   0.0000
    60 H22     17.2083 -15.4860  22.9971   H         1 BZT400   0.0000
    61 H23     20.7415 -15.4899  21.8551   H         1 BZT400   0.0000
    62 H24     19.3976 -16.5395  22.3599   H         1 BZT400   0.0000
    63 H25     20.8789 -17.3722  24.5460   H         1 BZT400   0.0000
    64 H26     22.2193 -16.3137  24.0507   H         1 BZT400   0.0000
    65 H27     17.2435 -20.6954  14.0317   H         1 BZT400   0.0000
    66 H28     17.1878 -20.5467  15.8029   H         1 BZT400   0.0000
    67 H29     14.6252  -9.7025  22.9385   H         1 BZT400   0.0000
    68 H30     13.0223  -9.0398  24.7721   H         1 BZT400   0.0000
    69 H31     18.2064 -17.3179  13.3783   H         1 BZT400   0.0000
    70 H32     17.8175 -18.9135  12.6963   H         1 BZT400   0.0000
    71 H33     15.8023 -17.6536  13.8009   H         1 BZT400   0.0000
    72 H34     15.3402 -19.2222  14.4998   H         1 BZT400   0.0000
    73 H35     10.5072 -10.9230  25.8413   H         1 BZT400   0.0000
@<TRIPOS>BOND
     1     1     2   ar
     2     1     6   ar
     3     1    38    1
     4     2     3   ar
     5     3     4   ar
     6     3     7    1
     7     4     5   ar
     8     4     9    1
     9     5     6   ar
    10     7     8    1
    11     8     9    2
    12     8    11    1
    13     9    10    1
    14    10    20    1
    15    11    12   ar
    16    11    16   ar
    17    12    13   ar
    18    13    14   ar
    19    14    15   ar
    20    14    17    1
    21    15    16   ar
    22    17    18    1
    23    18    37    1
    24    19    20   ar
    25    19    24   ar
    26    20    21   ar
    27    21    22   ar
    28    22    23   ar
    29    22    25    1
    30    23    24   ar
    31    23    26    1
    32    26    30    1
    33    27    28    1
    34    27    31    1
    35    28    29    1
    36    29    30    1
    37    30    31    1
    38    32    33    1
    39    32    36    1
    40    33    34    1
    41    33    37    1
    42    34    35    1
    43    35    36    1
    44     2    39    1
    45    35    40    1
    46    35    41    1
    47    15    42    1
    48    21    43    1
    49    27    44    1
    50    27    45    1
    51    16    46    1
    52    28    47    1
    53    28    48    1
    54    36    49    1
    55    36    50    1
    56    12    51    1
    57    18    52    1
    58    18    53    1
    59    29    54    1
    60    29    55    1
    61    10    56    1
    62    10    57    1
    63    13    58    1
    64    19    59    1
    65    24    60    1
    66    26    61    1
    67    26    62    1
    68    31    63    1
    69    31    64    1
    70    34    65    1
    71    34    66    1
    72     5    67    1
    73     6    68    1
    74    32    69    1
    75    32    70    1
    76    37    71    1
    77    37    72    1
    78    38    73    1
@<TRIPOS>SUBSTRUCTURE
     1 BZT400      1 GROUP             0 B     BZT     0  
@<TRIPOS>MOLECULE
H:4CP1246
    47    48     1     0     0
SMALL
NO_CHARGES
****
Generated from the CSD

@<TRIPOS>ATOM
     1 C1      12.2540 -10.1148  23.8262   C.ar      1 4CP1246   0.0000
     2 C2      13.2625 -10.1507  22.8088   C.ar      1 4CP1246   0.0000
     3 C3      13.2771 -11.2184  21.8509   C.ar      1 4CP1246   0.0000
     4 C4      12.2791 -12.2524  21.9124   C.ar      1 4CP1246   0.0000
     5 C5      11.2706 -12.2085  22.9397   C.ar      1 4CP1246   0.0000
     6 C6      11.2580 -11.1437  23.8936   C.ar      1 4CP1246   0.0000
     7 CL7     12.2338  -8.8416  24.9674   Cl        1 4CP1246   0.0000
     8 S8      12.3304 -13.5370  20.7253   S.3       1 4CP1246   0.0000
     9 C9      12.0586 -15.1976  21.4180   C.3       1 4CP1246   0.0000
    10 C10     13.3708 -15.8669  21.8047   C.2       1 4CP1246   0.0000
    11 O11     13.3175 -16.9882  22.2859   O.2       1 4CP1246   0.0000
    12 N12     14.6217 -15.2560  21.6315   N.am      1 4CP1246   0.0000
    13 C13     15.9540 -15.8426  21.9850   C.3       1 4CP1246   0.0000
    14 C14     16.6493 -16.3252  20.6851   C.3       1 4CP1246   0.0000
    15 C15     15.9402 -17.4083  19.8577   C.ar      1 4CP1246   0.0000
    16 C16     15.2953 -17.0278  18.6266   C.ar      1 4CP1246   0.0000
    17 C17     14.6243 -18.0132  17.8218   C.ar      1 4CP1246   0.0000
    18 C18     14.5865 -19.4083  18.2325   C.ar      1 4CP1246   0.0000
    19 C19     15.2353 -19.7746  19.4714   C.ar      1 4CP1246   0.0000
    20 C20     15.9093 -18.7862  20.2772   C.ar      1 4CP1246   0.0000
    21 N21     13.9324 -20.4748  17.4827   N.2       1 4CP1246   0.0000
    22 C22     13.2200 -20.4651  16.2497   C.2       1 4CP1246   0.0000
    23 N23     13.0303 -19.3832  15.5415   N.pl3     1 4CP1246   0.0000
    24 N24     12.7057 -21.6605  15.7824   N.pl3     1 4CP1246   0.0000
    25 C25     16.8190 -14.7798  22.6765   C.2       1 4CP1246   0.0000
    26 O26     16.4379 -13.6179  22.7056   O.2       1 4CP1246   0.0000
    27 N27     18.0292 -15.0961  23.2857   N.am      1 4CP1246   0.0000
    28 H1      10.4941 -11.1143  24.6692   H         1 4CP1246   0.0000
    29 H2      11.5545 -15.8125  20.6739   H         1 4CP1246   0.0000
    30 H3      11.4311 -15.1124  22.3040   H         1 4CP1246   0.0000
    31 H4      14.6242 -14.3252  21.2267   H         1 4CP1246   0.0000
    32 H5      14.0178  -9.3674  22.7628   H         1 4CP1246   0.0000
    33 H6      14.0433 -11.2462  21.0776   H         1 4CP1246   0.0000
    34 H7      10.5139 -12.9901  22.9900   H         1 4CP1246   0.0000
    35 H8      15.2149 -20.8123  19.8012   H         1 4CP1246   0.0000
    36 H9      15.3160 -15.9881  18.3035   H         1 4CP1246   0.0000
    37 H10     17.6263 -16.7166  20.9646   H         1 4CP1246   0.0000
    38 H11     16.7770 -15.4557  20.0421   H         1 4CP1246   0.0000
    39 H12     16.3961 -19.0823  21.2052   H         1 4CP1246   0.0000
    40 H13     14.1392 -17.7115  16.8946   H         1 4CP1246   0.0000
    41 H14     12.5147 -19.4319  14.6686   H         1 4CP1246   0.0000
    42 H15     13.3986 -18.4942  15.8644   H         1 4CP1246   0.0000
    43 H16     18.5769 -14.3687  23.7343   H         1 4CP1246   0.0000
    44 H17     18.3644 -16.0541  23.2816   H         1 4CP1246   0.0000
    45 H18     15.8119 -16.6882  22.6564   H         1 4CP1246   0.0000
    46 H19     12.1934 -21.6847  14.9066   H         1 4CP1246   0.0000
    47 H20     12.8405 -22.5138  16.3153   H         1 4CP1246   0.0000
@<TRIPOS>BOND
     1     1     2   ar
     2     1     6   ar
     3     1     7    1
     4     2     3   ar
     5     3     4   ar
     6     4     5   ar
     7     4     8    1
     8     5     6   ar
     9     8     9    1
    10     9    10    1
    11    10    11    2
    12    10    12   am
    13    12    13    1
    14    13    14    1
    15    13    25    1
    16    14    15    1
    17    15    16   ar
    18    15    20   ar
    19    16    17   ar
    20    17    18   ar
    21    18    19   ar
    22    18    21    1
    23    19    20   ar
    24    21    22    2
    25    22    23    1
    26    22    24    1
    27    25    26    2
    28    25    27   am
    29     6    28    1
    30     9    29    1
    31     9    30    1
    32    12    31    1
    33     2    32    1
    34     3    33    1
    35     5    34    1
    36    19    35    1
    37    16    36    1
    38    14    37    1
    39    14    38    1
    40    20    39    1
    41    17    40    1
    42    23    41    1
    43    23    42    1
    44    27    43    1
    45    27    44    1
    46    13    45    1
    47    24    46    1
    48    24    47    1
@<TRIPOS>SUBSTRUCTURE
     1 4CP1246     1 GROUP             0 H     4CP     0  
@<TRIPOS>MOLECULE
B:R111
    58    62     1     0     0
SMALL
USER_CHARGES
****
Generated from the CSD

@<TRIPOS>ATOM
     1 N1      10.1794 -12.7070  24.2622   N.pl3     1 R111   1.0000
     2 N2      10.8504 -10.7152  24.8099   N.pl3     1 R111   0.0000
     3 C1      11.0879 -11.7735  24.0471   C.2       1 R111   0.0000
     4 C2      12.0861 -11.8418  23.0463   C.ar      1 R111   0.0000
     5 C3      12.2156 -12.9869  22.1803   C.ar      1 R111   0.0000
     6 C4      13.2118 -13.0531  21.1836   C.ar      1 R111   0.0000
     7 C5      14.1154 -11.9810  21.0106   C.ar      1 R111   0.0000
     8 C6      14.0207 -10.8435  21.8385   C.ar      1 R111   0.0000
     9 C7      13.0274 -10.7713  22.8371   C.ar      1 R111   0.0000
    10 N       15.1488 -12.0056  20.0011   N.pl3     1 R111   0.0000
    11 C       16.5993 -11.6903  20.1315   C.3       1 R111   0.0000
    12 N3      16.7659 -13.4146  21.9322   N.2       1 R111   0.0000
    13 C8      17.4484 -12.6079  21.0321   C.2       1 R111   0.0000
    14 N9      18.8668 -12.6461  20.9673   N.pl3     1 R111   0.0000
    15 C3A     19.0733 -13.5992  21.9586   C.ar      1 R111   0.0000
    16 C7A     17.8205 -14.0463  22.5257   C.ar      1 R111   0.0000
    17 C10     20.3046 -14.1352  22.4427   C.ar      1 R111   0.0000
    18 C11     20.2672 -15.0906  23.4666   C.ar      1 R111   0.0000
    19 C12     19.0335 -15.5379  24.0315   C.ar      1 R111   0.0000
    20 C13     17.8011 -15.0246  23.5668   C.ar      1 R111   0.0000
    21 C14     19.8502 -11.9093  20.1131   C.3       1 R111   0.0000
    22 C9      19.0634 -16.5732  25.1671   C.3       1 R111   0.0000
    23 N4      20.3429 -16.5045  25.9529   N.pl3     1 R111   0.0000
    24 C15     21.3547 -17.4512  26.2218   C.2       1 R111   0.0000
    25 N16     22.4834 -17.1319  26.9903   N.2       1 R111   0.0000
    26 C17     22.1599 -15.8138  27.2492   C.ar      1 R111   0.0000
    27 C18     20.9029 -15.4403  26.6394   C.ar      1 R111   0.0000
    28 C19     22.8949 -14.8525  28.0109   C.ar      1 R111   0.0000
    29 C20     22.3596 -13.5469  28.1464   C.ar      1 R111   0.0000
    30 C21     21.1396 -13.1764  27.5514   C.ar      1 R111   0.0000
    31 C22     20.3959 -14.1084  26.8053   C.ar      1 R111   0.0000
    32 C23     21.2647 -18.8680  25.6788   C.3       1 R111   0.0000
    33 H1      10.2221 -13.5838  23.7527   H         1 R111   0.0000
    34 H2       9.4382 -12.5479  24.9372   H         1 R111   0.0000
    35 H3      11.4628  -9.9072  24.7618   H         1 R111   0.0000
    36 H4      10.0561 -10.7131  25.4418   H         1 R111   0.0000
    37 H5      11.5268 -13.8221  22.2985   H         1 R111   0.0000
    38 H6      19.4451 -13.8220  26.3582   H         1 R111   0.0000
    39 H7      21.2284 -18.8382  24.5908   H         1 R111   0.0000
    40 H8      22.1382 -19.4350  25.9975   H         1 R111   0.0000
    41 H9      20.3632 -19.3460  26.0592   H         1 R111   0.0000
    42 H10     14.7175 -10.0172  21.7061   H         1 R111   0.0000
    43 H11     21.2550 -13.8076  22.0239   H         1 R111   0.0000
    44 H12     21.2027 -15.5031  23.8416   H         1 R111   0.0000
    45 H13     19.7479 -10.8385  20.2830   H         1 R111   0.0000
    46 H14     20.8609 -12.2227  20.3705   H         1 R111   0.0000
    47 H15     19.6575 -12.1306  19.0644   H         1 R111   0.0000
    48 H16     16.8589 -15.3669  23.9923   H         1 R111   0.0000
    49 H17     13.2845 -13.9329  20.5459   H         1 R111   0.0000
    50 H18     14.8435 -12.2758  19.0715   H         1 R111   0.0000
    51 H19     22.9091 -12.8085  28.7284   H         1 R111   0.0000
    52 H20     23.8434 -15.1171  28.4760   H         1 R111   0.0000
    53 H21     12.9706  -9.8840  23.4660   H         1 R111   0.0000
    54 H22     16.6791 -10.6793  20.5283   H         1 R111   0.0000
    55 H23     17.0315 -11.7232  19.1324   H         1 R111   0.0000
    56 H24     18.9664 -17.5695  24.7381   H         1 R111   0.0000
    57 H25     18.2270 -16.3841  25.8384   H         1 R111   0.0000
    58 H26     20.7681 -12.1595  27.6695   H         1 R111   0.0000
@<TRIPOS>BOND
     1     1     3    2
     2     2     3    1
     3     3     4    1
     4     4     5   ar
     5     4     9   ar
     6     5     6   ar
     7     6     7   ar
     8     7     8   ar
     9     7    10    1
    10     8     9   ar
    11    10    11    1
    12    11    13    1
    13    12    13    2
    14    12    16    1
    15    13    14    1
    16    14    15    1
    17    14    21    1
    18    15    16   ar
    19    15    17   ar
    20    16    20   ar
    21    17    18   ar
    22    18    19   ar
    23    19    20   ar
    24    19    22    1
    25    22    23    1
    26    23    24    1
    27    23    27    1
    28    24    25    2
    29    24    32    1
    30    25    26    1
    31    26    27   ar
    32    26    28   ar
    33    27    31   ar
    34    28    29   ar
    35    29    30   ar
    36    30    31   ar
    37     1    33    1
    38     1    34    1
    39     2    35    1
    40     2    36    1
    41     5    37    1
    42    31    38    1
    43    32    39    1
    44    32    40    1
    45    32    41    1
    46     8    42    1
    47    17    43    1
    48    18    44    1
    49    21    45    1
    50    21    46    1
    51    21    47    1
    52    20    48    1
    53     6    49    1
    54    10    50    1
    55    29    51    1
    56    28    52    1
    57     9    53    1
    58    11    54    1
    59    11    55    1
    60    22    56    1
    61    22    57    1
    62    30    58    1
@<TRIPOS>SUBSTRUCTURE
     1 R111        1 GROUP             0 B     R11     0  
@<TRIPOS>MOLECULE
H:APA401
    27    27     1     0     0
SMALL
USER_CHARGES
****
Generated from the CSD

@<TRIPOS>ATOM
     1 C1      15.1468 -10.9805  17.3099   C.ar      1 APA401   0.0000
     2 O1      16.4006 -11.0407  17.3576   O.co2     1 APA401   0.0000
     3 OXT     14.5240 -11.2857  16.2776   O.co2     1 APA401   0.0000
     4 C2      14.2189 -10.5199  18.4594   C.3       1 APA401   0.0000
     5 O2      12.8964 -10.5188  18.3788   O.3       1 APA401   0.0000
     6 C3      14.9155 -11.1992  19.6887   C.3       1 APA401   0.0000
     7 C1'     13.8755 -11.5155  20.7800   C.ar      1 APA401   0.0000
     8 C2'     13.0780 -12.6424  20.8896   C.ar      1 APA401   0.0000
     9 C3'     12.1554 -12.7915  21.9276   C.ar      1 APA401   0.0000
    10 C4'     12.0003 -11.7924  22.9018   C.ar      1 APA401   0.0000
    11 C5'     12.7958 -10.6604  22.8001   C.ar      1 APA401   0.0000
    12 C6'     13.7037 -10.5535  21.7548   C.ar      1 APA401   0.0000
    13 C       11.0713 -11.7818  24.1164   C.2       1 APA401   0.0000
    14 N1      10.3684 -12.8681  24.4049   N.pl3     1 APA401   1.0000
    15 N2      10.8084 -10.6377  24.7598   N.pl3     1 APA401   0.0000
    16 H1      12.7089  -9.8613  23.5349   H         1 APA401   0.0000
    17 H2      13.1727 -13.4331  20.1468   H         1 APA401   0.0000
    18 H3      14.4665  -9.4661  18.5781   H         1 APA401   0.0000
    19 H4      14.3178  -9.6557  21.7009   H         1 APA401   0.0000
    20 H5      12.5742 -11.4430  18.2110   H         1 APA401   0.0000
    21 H6      15.6685 -10.5247  20.0938   H         1 APA401   0.0000
    22 H7      15.3921 -12.1239  19.3668   H         1 APA401   0.0000
    23 H8      11.5486 -13.6942  21.9820   H         1 APA401   0.0000
    24 H9       9.7485 -12.8729  25.2086   H         1 APA401   0.0000
    25 H10     10.4501 -13.6951  23.8222   H         1 APA401   0.0000
    26 H11     10.1908 -10.6388  25.5652   H         1 APA401   0.0000
    27 H12     11.2268  -9.7692  24.4422   H         1 APA401   0.0000
@<TRIPOS>BOND
     1     1     2   ar
     2     1     3   ar
     3     1     4    1
     4     4     5    1
     5     4     6    1
     6     6     7    1
     7     7     8   ar
     8     7    12   ar
     9     8     9   ar
    10     9    10   ar
    11    10    11   ar
    12    10    13    1
    13    11    12   ar
    14    13    14    2
    15    13    15    1
    16    11    16    1
    17     8    17    1
    18     4    18    1
    19    12    19    1
    20     5    20    1
    21     6    21    1
    22     6    22    1
    23     9    23    1
    24    14    24    1
    25    14    25    1
    26    15    26    1
    27    15    27    1
@<TRIPOS>SUBSTRUCTURE
     1 APA401      1 GROUP             0 H     APA     0  
@<TRIPOS>MOLECULE
B:EPE301
    32    32     1     0     0
SMALL
USER_CHARGES
****
Generated from the CSD

@<TRIPOS>ATOM
     1 N1      29.5922   3.7842  28.9194   N.3       1 EPE301   0.0000
     2 C2      28.7054   2.9265  27.9622   C.3       1 EPE301   0.0000
     3 C3      27.4750   2.5046  28.8363   C.3       1 EPE301   0.0000
     4 N4      27.9943   1.6257  30.0261   N.3       1 EPE301   0.0000
     5 C5      28.9781   2.3120  30.9062   C.3       1 EPE301   0.0000
     6 C6      30.1640   2.9431  30.1079   C.3       1 EPE301   0.0000
     7 C7      26.9414   1.1333  31.0028   C.3       1 EPE301   0.0000
     8 C8      25.9135   2.0858  31.5192   C.3       1 EPE301   0.0000
     9 O8      26.4430   3.3458  31.9717   O.3       1 EPE301   0.0000
    10 C9      30.7898   4.3059  28.3142   C.3       1 EPE301   0.0000
    11 C10     30.4189   5.5905  27.5928   C.3       1 EPE301   0.0000
    12 S       31.6115   6.5835  26.7204   S.o2      1 EPE301   0.0000
    13 O1S     30.8930   7.7188  26.1445   O.2       1 EPE301  -1.0000
    14 O2S     32.1975   5.7243  25.6934   O.2       1 EPE301  -1.0000
    15 O3S     32.5482   6.9721  27.7611   O.2       1 EPE301  -1.0000
    16 H1      29.3801   1.5863  31.6117   H         1 EPE301   0.0000
    17 H2      28.4653   3.1029  31.4516   H         1 EPE301   0.0000
    18 H3      30.7435   3.5889  30.7659   H         1 EPE301   0.0000
    19 H4      30.8040   2.1520  29.7199   H         1 EPE301   0.0000
    20 H5      27.4720   0.7400  31.8687   H         1 EPE301   0.0000
    21 H6      26.4042   0.3253  30.5084   H         1 EPE301   0.0000
    22 H7      25.4001   1.6125  32.3548   H         1 EPE301   0.0000
    23 H8      25.2006   2.2835  30.7200   H         1 EPE301   0.0000
    24 H9      26.9059   3.7997  31.2195   H         1 EPE301   0.0000
    25 H10     29.9772   6.2419  28.3454   H         1 EPE301   0.0000
    26 H11     29.6612   5.3165  26.8600   H         1 EPE301   0.0000
    27 H12     26.7742   1.9299  28.2326   H         1 EPE301   0.0000
    28 H13     26.9772   3.3921  29.2241   H         1 EPE301   0.0000
    29 H14     29.2502   2.0494  27.6162   H         1 EPE301   0.0000
    30 H15     28.3839   3.5158  27.1047   H         1 EPE301   0.0000
    31 H16     31.1916   3.5843  27.6044   H         1 EPE301   0.0000
    32 H17     31.5339   4.5129  29.0819   H         1 EPE301   0.0000
@<TRIPOS>BOND
     1     1     2    1
     2     1     6    1
     3     1    10    1
     4     2     3    1
     5     3     4    1
     6     4     5    1
     7     4     7    1
     8     5     6    1
     9     7     8    1
    10     8     9    1
    11    10    11    1
    12    11    12    1
    13    12    13   ar
    14    12    14   ar
    15    12    15   ar
    16     5    16    1
    17     5    17    1
    18     6    18    1
    19     6    19    1
    20     7    20    1
    21     7    21    1
    22     8    22    1
    23     8    23    1
    24     9    24    1
    25    11    25    1
    26    11    26    1
    27     3    27    1
    28     3    28    1
    29     2    29    1
    30     2    30    1
    31    10    31    1
    32    10    32    1
@<TRIPOS>SUBSTRUCTURE
     1 EPE301      1 GROUP             0 B     EPE     0  
@<TRIPOS>MOLECULE
2:IH1370
    64    67     1     0     0
SMALL
USER_CHARGES
****
Generated from the CSD

@<TRIPOS>ATOM
     1 C27     22.0037 -15.0799  25.5684   C.ar      1 IH1370   0.0000
     2 C28     21.1372 -14.3108  26.1974   C.ar      1 IH1370   0.0000
     3 C29     19.9825 -14.9441  26.5054   C.ar      1 IH1370   0.0000
     4 C24     19.7399 -16.2606  26.1399   C.ar      1 IH1370   0.0000
     5 C25     20.5971 -16.9732  25.4417   C.ar      1 IH1370   0.0000
     6 C26     21.7669 -16.3869  25.1279   C.ar      1 IH1370   0.0000
     7 BR      23.5287 -14.3126  25.1048   Br        1 IH1370   0.0000
     8 S       18.2567 -17.0997  26.4388   S.o2      1 IH1370   0.0000
     9 O1      17.3228 -16.0235  26.7393   O.2       1 IH1370   0.0000
    10 O2      18.5456 -17.9729  27.5948   O.2       1 IH1370   0.0000
    11 C23     17.7436 -17.9924  25.0347   C.3       1 IH1370   0.0000
    12 C22     17.1496 -17.1373  23.8195   C.3       1 IH1370   0.0000
    13 C13     18.5525 -13.0358  21.7316   C.3       1 IH1370   0.0000
    14 C14     19.8027 -12.8990  21.0929   C.2       1 IH1370   0.0000
    15 C15     20.7641 -13.7652  20.7982   C.2       1 IH1370   0.0000
    16 C16     20.5348 -15.1772  21.2892   C.3       1 IH1370   0.0000
    17 C19     19.1153 -16.4683  22.6904   C.2       1 IH1370   0.0000
    18 C21     17.6532 -14.8811  23.0414   C.2       1 IH1370   0.0000
    19 N17     19.3717 -15.3156  21.9557   N.am      1 IH1370   0.0000
    20 N18     18.6143 -14.3050  22.4261   N.am      1 IH1370   0.0000
    21 O21     16.6688 -14.4098  23.3712   O.2       1 IH1370   0.0000
    22 O19     19.8634 -17.4220  22.5877   O.2       1 IH1370   0.0000
    23 N20     17.9819 -16.2204  23.2207   N.am      1 IH1370   0.0000
    24 C12     17.2602 -12.7115  20.6908   C.2       1 IH1370   0.0000
    25 O12     17.4433 -12.2342  19.5108   O.2       1 IH1370   0.0000
    26 C1      14.9464 -12.2256  20.4366   C.2       1 IH1370   0.0000
    27 C2      13.7066 -12.0552  21.1026   C.3       1 IH1370   0.0000
    28 C3      13.1953 -10.7070  21.5677   C.3       1 IH1370   0.0000
    29 C4      12.0155 -10.8138  22.3570   C.3       1 IH1370   0.0000
    30 C5      12.3177 -11.6289  23.7127   C.3       1 IH1370   0.0000
    31 C6      12.6716 -13.0113  23.0871   C.3       1 IH1370   0.0000
    32 N9      15.8954 -12.5014  20.9779   N.2       1 IH1370   0.0000
    33 C7      13.6279 -13.2049  22.1449   C.3       1 IH1370   0.0000
    34 C8      11.0535 -11.8371  24.2667   C.2       1 IH1370   0.0000
    35 N11     10.4542 -12.9629  24.2131   N.pl3     1 IH1370   1.0000
    36 N10     10.5768 -10.8515  24.9886   N.pl3     1 IH1370   0.0000
    37 H1      21.3321 -13.2683  26.4446   H         1 IH1370   0.0000
    38 H2      19.2171 -14.4023  27.0591   H         1 IH1370   0.0000
    39 H3      20.0228 -11.8797  20.7791   H         1 IH1370   0.0000
    40 H4      21.6556 -13.4792  20.2420   H         1 IH1370   0.0000
    41 H5      21.3520 -15.4512  21.9548   H         1 IH1370   0.0000
    42 H6      20.5257 -15.8470  20.4307   H         1 IH1370   0.0000
    43 H7      16.2835 -16.5947  24.1954   H         1 IH1370   0.0000
    44 H8      16.8321 -17.8402  23.0507   H         1 IH1370   0.0000
    45 H9      14.9832 -12.0841  19.3575   H         1 IH1370   0.0000
    46 H10     12.9773 -12.3515  20.3501   H         1 IH1370   0.0000
    47 H11     12.9763 -10.0960  20.6933   H         1 IH1370   0.0000
    48 H12     13.9706 -10.2256  22.1620   H         1 IH1370   0.0000
    49 H13     11.2489 -11.3369  21.7873   H         1 IH1370   0.0000
    50 H14     11.6617  -9.8154  22.6101   H         1 IH1370   0.0000
    51 H15     13.0662 -11.1967  24.3752   H         1 IH1370   0.0000
    52 H16     11.7465 -13.3785  22.6454   H         1 IH1370   0.0000
    53 H17     12.9521 -13.6486  23.9245   H         1 IH1370   0.0000
    54 H18     14.5927 -13.2859  22.6434   H         1 IH1370   0.0000
    55 H19     13.4118 -14.1337  21.6191   H         1 IH1370   0.0000
    56 H20      9.5348 -13.0688  24.6300   H         1 IH1370   0.0000
    57 H21     10.8970 -13.7522  23.7534   H         1 IH1370   0.0000
    58 H22     22.5149 -16.9192  24.5423   H         1 IH1370   0.0000
    59 H23     20.3702 -17.9921  25.1314   H         1 IH1370   0.0000
    60 H24     16.9737 -18.6940  25.3524   H         1 IH1370   0.0000
    61 H25     18.6051 -18.5437  24.6607   H         1 IH1370   0.0000
    62 H26     18.5205 -12.2684  22.5036   H         1 IH1370   0.0000
    63 H27      9.6625 -10.9354  25.4215   H         1 IH1370   0.0000
    64 H28     11.1220 -10.0047  25.1146   H         1 IH1370   0.0000
@<TRIPOS>BOND
     1     1     2   ar
     2     1     6   ar
     3     1     7    1
     4     2     3   ar
     5     3     4   ar
     6     4     5   ar
     7     4     8    1
     8     5     6   ar
     9     8     9    2
    10     8    10    2
    11     8    11    1
    12    11    12    1
    13    12    23    1
    14    13    14    1
    15    13    20    1
    16    13    24    1
    17    14    15    2
    18    15    16    1
    19    16    19    1
    20    17    19   am
    21    17    22    2
    22    17    23   am
    23    18    20   am
    24    18    21    2
    25    18    23   am
    26    19    20    1
    27    24    25    2
    28    24    32    1
    29    26    27    1
    30    26    32    2
    31    27    28    1
    32    27    33    1
    33    28    29    1
    34    29    30    1
    35    30    31    1
    36    30    34    1
    37    31    33    1
    38    34    35    2
    39    34    36    1
    40     2    37    1
    41     3    38    1
    42    14    39    1
    43    15    40    1
    44    16    41    1
    45    16    42    1
    46    12    43    1
    47    12    44    1
    48    26    45    1
    49    27    46    1
    50    28    47    1
    51    28    48    1
    52    29    49    1
    53    29    50    1
    54    30    51    1
    55    31    52    1
    56    31    53    1
    57    33    54    1
    58    33    55    1
    59    35    56    1
    60    35    57    1
    61     6    58    1
    62     5    59    1
    63    11    60    1
    64    11    61    1
    65    13    62    1
    66    36    63    1
    67    36    64    1
@<TRIPOS>SUBSTRUCTURE
     1 IH1370      1 GROUP             0 2     IH1     0  
@<TRIPOS>MOLECULE
M:0GJ303
    53    52     4     0     0
SMALL
USER_CHARGES
****
Generated from the CSD

@<TRIPOS>ATOM
     1 N       18.3868 -15.6177  24.9733   N.3       1 0GJ303   0.0000
     2 CA      18.0988 -15.7932  23.5215   C.3       1 0GJ303   0.0000
     3 C       17.7202 -14.4463  22.9070   C.2       1 0GJ303   0.0000
     4 O       16.6624 -13.8952  23.2142   O.2       1 0GJ303   0.0000
     5 CB      16.9617 -16.7999  23.3606   C.3       1 0GJ303   0.0000
     6 CG      16.5588 -17.1230  21.9392   C.3       1 0GJ303   0.0000
     7 CD      15.2760 -18.1024  21.9117   C.ar      1 0GJ303   0.0000
     8 OE1     14.4915 -18.0868  22.8965   O.co2     1 0GJ303   0.0000
     9 OE2     15.1156 -18.8432  20.9112   O.co2     1 0GJ303   0.0000
    10 N1      18.5861 -13.9444  22.0273   N.am      2 0GJ304   0.0000
    11 CA1     18.3819 -12.6572  21.3815   C.3       2 0GJ304   0.0000
    12 C1      17.1419 -12.5155  20.5228   C.2       2 0GJ304   0.0000
    13 O1      16.8288 -13.4054  19.7342   O.2       2 0GJ304   0.0000
    14 N2      16.4432 -11.3905  20.6695   N.am      3 0GJ305   0.0000
    15 CA2     15.2245 -11.1210  19.9059   C.3       3 0GJ305   0.0000
    16 C2      15.4244 -10.1228  18.7609   C.3       3 0GJ305   0.0000
    17 O2      14.6358 -10.1850  17.8184   O.3       3 0GJ305   0.0000
    18 CB1     14.1035 -10.6311  20.8312   C.3       3 0GJ305   0.0000
    19 CG1     13.6151 -11.6697  21.8400   C.3       3 0GJ305   0.0000
    20 CD1     12.6209 -11.0391  22.8098   C.3       3 0GJ305   0.0000
    21 NE      11.9808 -12.0542  23.6351   N.pl3     3 0GJ305   0.0000
    22 CZ      11.1275 -11.8141  24.6265   C.cat     3 0GJ305   0.0000
    23 NH1     10.7962 -10.5648  24.9476   N.pl3     3 0GJ305   1.0000
    24 NH2     10.5533 -12.8371  25.2556   N.pl3     3 0GJ305   1.0000
    25 C3      16.9143 -10.1403  18.1153   C.3       4 0GJ306   0.0000
    26 H1      14.8984 -12.0625  19.4664   H         3 0GJ305   0.0000
    27 H2      17.5622 -15.2540  25.4403   H         1 0GJ303   0.0000
    28 H3      18.6380 -16.5135  25.3791   H         1 0GJ303   0.0000
    29 H4      15.2960  -9.1333  19.1972   H         3 0GJ305   0.0000
    30 H5      18.9887 -16.1759  23.0239   H         1 0GJ303   0.0000
    31 H6      17.3913 -17.6118  21.4352   H         1 0GJ303   0.0000
    32 H7      16.3124 -16.1982  21.4196   H         1 0GJ303   0.0000
    33 H8      19.2461 -12.4655  20.7472   H         2 0GJ304   0.0000
    34 H9      18.3303 -11.9005  22.1630   H         2 0GJ304   0.0000
    35 H10     16.7679 -10.6958  21.3344   H         3 0GJ305   0.0000
    36 H11     19.4180 -14.4795  21.7996   H         2 0GJ304   0.0000
    37 H12     16.0875 -16.3997  23.8719   H         1 0GJ303   0.0000
    38 H13     17.2687 -17.7286  23.8392   H         1 0GJ303   0.0000
    39 H14     11.8578 -10.5084  22.2424   H         3 0GJ305   0.0000
    40 H15     13.1483 -10.3371  23.4540   H         3 0GJ305   0.0000
    41 H16     12.2042 -13.0243  23.4373   H         3 0GJ305   0.0000
    42 H17     13.2579 -10.3336  20.2129   H         3 0GJ305   0.0000
    43 H18     14.4713  -9.7674  21.3832   H         3 0GJ305   0.0000
    44 H19      9.9006 -12.6650  26.0136   H         3 0GJ305   0.0000
    45 H20     10.7682 -13.7892  24.9772   H         3 0GJ305   0.0000
    46 H21     13.7124 -10.0292  18.1486   H         3 0GJ305   0.0000
    47 H22     14.4664 -12.0558  22.3988   H         3 0GJ305   0.0000
    48 H23     13.1294 -12.4865  21.3082   H         3 0GJ305   0.0000
    49 H24     10.1441 -10.3916  25.7059   H         3 0GJ305   0.0000
    50 H25     11.1958  -9.7858  24.4340   H         3 0GJ305   0.0000
    51 H26     17.1252 -11.1311  17.7158   H         4 0GJ306   0.0000
    52 H27     16.9710  -9.4059  17.3132   H         4 0GJ306   0.0000
    53 H28     17.6459  -9.8955  18.8840   H         4 0GJ306   0.0000
@<TRIPOS>BOND
     1     1     2    1
     2     2     3    1
     3     2     5    1
     4     3     4    2
     5     3    10   am
     6     5     6    1
     7     6     7    1
     8     7     8   ar
     9     7     9   ar
    10    10    11    1
    11    11    12    1
    12    12    13    2
    13    12    14   am
    14    14    15    1
    15    15    16    1
    16    15    18    1
    17    16    17    1
    18    16    25    1
    19    18    19    1
    20    19    20    1
    21    20    21    1
    22    21    22    1
    23    22    23   ar
    24    22    24   ar
    25    15    26    1
    26     1    27    1
    27     1    28    1
    28    16    29    1
    29     2    30    1
    30     6    31    1
    31     6    32    1
    32    11    33    1
    33    11    34    1
    34    14    35    1
    35    10    36    1
    36     5    37    1
    37     5    38    1
    38    20    39    1
    39    20    40    1
    40    21    41    1
    41    18    42    1
    42    18    43    1
    43    24    44    1
    44    24    45    1
    45    17    46    1
    46    19    47    1
    47    19    48    1
    48    23    49    1
    49    23    50    1
    50    25    51    1
    51    25    52    1
    52    25    53    1
@<TRIPOS>SUBSTRUCTURE
     1 0GJ303      1 GROUP             0 M     0GJ     0  
     2 0GJ304     10 GROUP             0 M     0GJ     0  
     3 0GJ305     14 GROUP             0 M     0GJ     0  
     4 0GJ306     25 GROUP             0 M     0GJ     0  
@<TRIPOS>MOLECULE
H:4ND250
    26    27     1     0     0
SMALL
NO_CHARGES
****
Generated from the CSD

@<TRIPOS>ATOM
     1 C1      15.1602 -10.5995  19.6399   C.2       1 4ND250   0.0000
     2 O1      16.1602 -10.7513  18.9119   O.2       1 4ND250   0.0000
     3 N5      14.7778 -11.5626  20.5198   N.am      1 4ND250   0.0000
     4 C3      13.5968 -11.3888  21.4439   C.ar      1 4ND250   0.0000
     5 C4      13.6109 -10.3661  22.4373   C.ar      1 4ND250   0.0000
     6 C5      12.5181 -10.2080  23.3339   C.ar      1 4ND250   0.0000
     7 C6      11.4002 -11.0686  23.2450   C.ar      1 4ND250   0.0000
     8 C7      11.3722 -12.0884  22.2545   C.ar      1 4ND250   0.0000
     9 C8      12.4590 -12.2525  21.3580   C.ar      1 4ND250   0.0000
    10 C9      15.5745 -12.8258  20.6010   C.ar      1 4ND250   0.0000
    11 C10     15.2292 -13.9316  19.7676   C.ar      1 4ND250   0.0000
    12 C11     15.9877 -15.1401  19.8355   C.ar      1 4ND250   0.0000
    13 C12     17.0874 -15.2439  20.7317   C.ar      1 4ND250   0.0000
    14 C13     17.4367 -14.1410  21.5672   C.ar      1 4ND250   0.0000
    15 C14     16.6762 -12.9285  21.5003   C.ar      1 4ND250   0.0000
    16 H1      14.5825  -9.6790  19.5700   H         1 4ND250   0.0000
    17 H2      14.4680  -9.6984  22.5104   H         1 4ND250   0.0000
    18 H3      12.5426  -9.4237  24.0890   H         1 4ND250   0.0000
    19 H4      10.5638 -10.9511  23.9324   H         1 4ND250   0.0000
    20 H5      14.3881 -13.8541  19.0803   H         1 4ND250   0.0000
    21 H6      12.4275 -13.0369  20.6032   H         1 4ND250   0.0000
    22 H7      16.9398 -12.0850  22.1366   H         1 4ND250   0.0000
    23 H8      17.6638 -16.1666  20.7804   H         1 4ND250   0.0000
    24 H9      18.2785 -14.2207  22.2534   H         1 4ND250   0.0000
    25 H10     10.5092 -12.7488  22.1837   H         1 4ND250   0.0000
    26 H11     15.7234 -15.9839  19.1997   H         1 4ND250   0.0000
@<TRIPOS>BOND
     1     1     2    2
     2     1     3   am
     3     3     4    1
     4     3    10    1
     5     4     5   ar
     6     4     9   ar
     7     5     6   ar
     8     6     7   ar
     9     7     8   ar
    10     8     9   ar
    11    10    11   ar
    12    10    15   ar
    13    11    12   ar
    14    12    13   ar
    15    13    14   ar
    16    14    15   ar
    17     1    16    1
    18     5    17    1
    19     6    18    1
    20     7    19    1
    21    11    20    1
    22     9    21    1
    23    15    22    1
    24    13    23    1
    25    14    24    1
    26     8    25    1
    27    12    26    1
@<TRIPOS>SUBSTRUCTURE
     1 4ND250      1 GROUP             0 H     4ND     0  
@<TRIPOS>MOLECULE
B:L021248
    35    37     1     0     0
SMALL
USER_CHARGES
****
Generated from the CSD

@<TRIPOS>ATOM
     1 N1      12.7263 -14.4326  19.5267   N.pl3     1 L021248   0.0000
     2 N3      12.6898 -13.1812  20.1239   N.2       1 L021248   0.0000
     3 C4      12.2702 -13.3177  21.3613   C.2       1 L021248   0.0000
     4 C5      12.0151 -14.6932  21.5906   C.2       1 L021248   0.0000
     5 C6      12.3090 -15.3293  20.4352   C.2       1 L021248   0.0000
     6 C7      12.2069 -16.7826  20.1025   C.3       1 L021248   0.0000
     7 C8      11.5215 -17.6233  21.1709   C.3       1 L021248   0.0000
     8 C10     11.4388 -19.0661  20.6502   C.3       1 L021248   0.0000
     9 N12     12.7974 -19.5723  20.4021   N.4       1 L021248   1.0000
    10 C13     13.3974 -18.7928  19.2951   C.3       1 L021248   0.0000
    11 C15     13.5851 -17.3346  19.7449   C.3       1 L021248   0.0000
    12 C20     11.1975 -12.1813  23.3483   C.ar      1 L021248   0.0000
    13 C21     12.1380 -12.1870  22.3065   C.ar      1 L021248   0.0000
    14 C22     13.0190 -11.1061  22.1214   C.ar      1 L021248   0.0000
    15 C24     12.9695 -10.0205  22.9642   C.ar      1 L021248   0.0000
    16 C26     12.0468  -9.9946  24.0089   C.ar      1 L021248   0.0000
    17 C28     11.1648 -11.0745  24.2000   C.ar      1 L021248   0.0000
    18 CL1     12.0048  -8.5971  25.0528   Cl        1 L021248   0.0000
    19 H1      11.5958 -16.8571  19.2042   H         1 L021248   0.0000
    20 H2      10.5201 -17.2391  21.3589   H         1 L021248   0.0000
    21 H3      12.1004 -17.5946  22.0929   H         1 L021248   0.0000
    22 H4      10.8682 -19.0860  19.7228   H         1 L021248   0.0000
    23 H5      10.9469 -19.6931  21.3924   H         1 L021248   0.0000
    24 H6      13.0162 -14.6342  18.5751   H         1 L021248   0.0000
    25 H7      11.6546 -15.1463  22.5129   H         1 L021248   0.0000
    26 H8      13.7427 -11.1290  21.3080   H         1 L021248   0.0000
    27 H9      10.4492 -11.0470  25.0204   H         1 L021248   0.0000
    28 H10     14.2385 -17.2953  20.6152   H         1 L021248   0.0000
    29 H11     14.0216 -16.7496  18.9367   H         1 L021248   0.0000
    30 H12     12.7382 -18.8244  18.4288   H         1 L021248   0.0000
    31 H13     14.3639 -19.2197  19.0316   H         1 L021248   0.0000
    32 H14     10.5126 -13.0163  23.4888   H         1 L021248   0.0000
    33 H15     12.7551 -20.5535  20.1457   H         1 L021248   0.0000
    34 H16     13.3603 -19.4655  21.2399   H         1 L021248   0.0000
    35 H17     13.6495  -9.1830  22.8159   H         1 L021248   0.0000
@<TRIPOS>BOND
     1     1     2    1
     2     1     5    1
     3     2     3    2
     4     3     4    1
     5     3    13    1
     6     4     5    2
     7     5     6    1
     8     6     7    1
     9     6    11    1
    10     7     8    1
    11     8     9    1
    12     9    10    1
    13    10    11    1
    14    12    13   ar
    15    12    17   ar
    16    13    14   ar
    17    14    15   ar
    18    15    16   ar
    19    16    17   ar
    20    16    18    1
    21     6    19    1
    22     7    20    1
    23     7    21    1
    24     8    22    1
    25     8    23    1
    26     1    24    1
    27     4    25    1
    28    14    26    1
    29    17    27    1
    30    11    28    1
    31    11    29    1
    32    10    30    1
    33    10    31    1
    34    12    32    1
    35     9    33    1
    36     9    34    1
    37    15    35    1
@<TRIPOS>SUBSTRUCTURE
     1 L021248     1 GROUP             0 B     L02     0  
@<TRIPOS>MOLECULE
B:L031248
    22    23     1     0     0
SMALL
NO_CHARGES
****
Generated from the CSD

@<TRIPOS>ATOM
     1 C1      14.9011 -14.1279  18.1605   C.3       1 L031248   0.0000
     2 S2      13.8592 -15.5015  18.7239   S.3       1 L031248   0.0000
     3 C3      13.0339 -14.8044  20.1112   C.2       1 L031248   0.0000
     4 N4      12.2427 -15.4262  20.9520   N.2       1 L031248   0.0000
     5 N5      11.8285 -14.5993  21.8522   N.2       1 L031248   0.0000
     6 C6      12.3018 -13.3905  21.6011   C.2       1 L031248   0.0000
     7 N7      13.1181 -13.5035  20.5044   N.pl3     1 L031248   0.0000
     8 C8      12.1497 -12.1861  22.4353   C.ar      1 L031248   0.0000
     9 C9      11.2126 -12.1301  23.4795   C.ar      1 L031248   0.0000
    10 C10     11.1697 -11.0013  24.3007   C.ar      1 L031248   0.0000
    11 C11     12.0579  -9.9474  24.1037   C.ar      1 L031248   0.0000
    12 CL12    12.0065  -8.5158  25.1176   Cl        1 L031248   0.0000
    13 C13     12.9953 -10.0323  23.0776   C.ar      1 L031248   0.0000
    14 C14     13.0550 -11.1379  22.2544   C.ar      1 L031248   0.0000
    15 H1      15.5837 -13.8392  18.9583   H         1 L031248   0.0000
    16 H2      15.4735 -14.4405  17.2884   H         1 L031248   0.0000
    17 H3      14.2716 -13.2794  17.8965   H         1 L031248   0.0000
    18 H4      13.6708 -12.7687  20.0745   H         1 L031248   0.0000
    19 H5      10.4348 -10.9448  25.1023   H         1 L031248   0.0000
    20 H6      13.6938  -9.2114  22.9220   H         1 L031248   0.0000
    21 H7      10.5262 -12.9587  23.6474   H         1 L031248   0.0000
    22 H8      13.8049 -11.1932  21.4667   H         1 L031248   0.0000
@<TRIPOS>BOND
     1     1     2    1
     2     2     3    1
     3     3     4    2
     4     3     7    1
     5     4     5    1
     6     5     6    2
     7     6     7    1
     8     6     8    1
     9     8     9   ar
    10     8    14   ar
    11     9    10   ar
    12    10    11   ar
    13    11    12    1
    14    11    13   ar
    15    13    14   ar
    16     1    15    1
    17     1    16    1
    18     1    17    1
    19     7    18    1
    20    10    19    1
    21    13    20    1
    22     9    21    1
    23    14    22    1
@<TRIPOS>SUBSTRUCTURE
     1 L031248     1 GROUP             0 B     L03     0  
@<TRIPOS>MOLECULE
B:CDA248
    50    52     1     0     0
SMALL
NO_CHARGES
****
Generated from the CSD

@<TRIPOS>ATOM
     1 N1      21.2778 -16.5355  25.2180   N.ar      1 CDA248   0.0000
     2 C2      20.1916 -15.9302  25.8839   C.ar      1 CDA248   0.0000
     3 C3      20.2748 -14.5551  26.3563   C.ar      1 CDA248   0.0000
     4 C4      21.5202 -13.8759  26.0924   C.ar      1 CDA248   0.0000
     5 C5      22.6074 -14.5377  25.3862   C.ar      1 CDA248   0.0000
     6 C6      22.4794 -15.9077  24.9412   C.ar      1 CDA248   0.0000
     7 C11     18.9130 -16.7564  26.0151   C.3       1 CDA248   0.0000
     8 C12     18.3571 -17.2060  24.6753   C.3       1 CDA248   0.0000
     9 F13     17.9114 -16.1189  26.6599   F         1 CDA248   0.0000
    10 F1      19.2251 -17.8725  26.6883   F         1 CDA248   0.0000
    11 N18     17.7385 -16.0884  23.9454   N.pl3     1 CDA248   0.0000
    12 C21     18.3390 -15.3791  22.9338   C.2       1 CDA248   0.0000
    13 C22     17.6909 -14.1064  22.5100   C.2       1 CDA248   0.0000
    14 N23     18.3275 -13.4178  21.4995   N.am      1 CDA248   0.0000
    15 C24     19.5456 -13.9085  20.9020   C.2       1 CDA248   0.0000
    16 C25     20.1087 -15.1059  21.3774   C.2       1 CDA248   0.0000
    17 N26     19.4997 -15.7859  22.3486   N.2       1 CDA248   0.0000
    18 O28     16.6544 -13.6790  23.0150   O.2       1 CDA248   0.0000
    19 C29     20.2425 -13.2038  19.8058   C.3       1 CDA248   0.0000
    20 C33     17.7131 -12.1647  21.0207   C.3       1 CDA248   0.0000
    21 C34     16.2808 -12.3948  20.5696   C.2       1 CDA248   0.0000
    22 N37     15.4136 -11.4300  20.9649   N.am      1 CDA248   0.0000
    23 O38     15.9928 -13.3730  19.8823   O.2       1 CDA248   0.0000
    24 C39     14.0047 -11.4783  20.5591   C.3       1 CDA248   0.0000
    25 C40     13.0696 -11.4460  21.7459   C.ar      1 CDA248   0.0000
    26 C43     12.0912 -12.4784  21.8937   C.ar      1 CDA248   0.0000
    27 C44     11.2089 -12.4875  23.0286   C.ar      1 CDA248   0.0000
    28 C45     11.3337 -11.4293  23.9992   C.ar      1 CDA248   0.0000
    29 N46     13.1734 -10.4354  22.6863   N.ar      1 CDA248   0.0000
    30 F47     12.0516 -13.3891  20.9215   F         1 CDA248   0.0000
    31 C50     12.3376 -10.4056  23.7923   C.ar      1 CDA248   0.0000
    32 H1      21.6493 -12.8480  26.4281   H         1 CDA248   0.0000
    33 H2      13.8315 -12.3970  20.0006   H         1 CDA248   0.0000
    34 H3      13.7932 -10.6208  19.9220   H         1 CDA248   0.0000
    35 H4      20.5303 -12.2080  20.1396   H         1 CDA248   0.0000
    36 H5      21.1329 -13.7633  19.5228   H         1 CDA248   0.0000
    37 H6      19.5777 -13.1208  18.9472   H         1 CDA248   0.0000
    38 H7      12.4376  -9.5994  24.5175   H         1 CDA248   0.0000
    39 H8      10.6844 -11.3998  24.8729   H         1 CDA248   0.0000
    40 H9      15.7427 -10.6667  21.5473   H         1 CDA248   0.0000
    41 H10     19.4496 -14.0702  26.8757   H         1 CDA248   0.0000
    42 H11     17.6066 -17.9768  24.8443   H         1 CDA248   0.0000
    43 H12     19.1684 -17.6148  24.0749   H         1 CDA248   0.0000
    44 H13     18.2929 -11.7822  20.1820   H         1 CDA248   0.0000
    45 H14     17.7185 -11.4347  21.8287   H         1 CDA248   0.0000
    46 H15     21.0404 -15.4770  20.9530   H         1 CDA248   0.0000
    47 H16     16.7957 -15.8210  24.2095   H         1 CDA248   0.0000
    48 H17     10.4655 -13.2737  23.1519   H         1 CDA248   0.0000
    49 H18     23.2855 -16.4180  24.4162   H         1 CDA248   0.0000
    50 H19     23.5302 -13.9937  25.1904   H         1 CDA248   0.0000
@<TRIPOS>BOND
     1     1     2   ar
     2     1     6   ar
     3     2     3   ar
     4     2     7    1
     5     3     4   ar
     6     4     5   ar
     7     5     6   ar
     8     7     8    1
     9     7     9    1
    10     7    10    1
    11     8    11    1
    12    11    12    1
    13    12    13    1
    14    12    17    2
    15    13    14   am
    16    13    18    2
    17    14    15    1
    18    14    20    1
    19    15    16    2
    20    15    19    1
    21    16    17    1
    22    20    21    1
    23    21    22   am
    24    21    23    2
    25    22    24    1
    26    24    25    1
    27    25    26   ar
    28    25    29   ar
    29    26    27   ar
    30    26    30    1
    31    27    28   ar
    32    28    31   ar
    33    29    31   ar
    34     4    32    1
    35    24    33    1
    36    24    34    1
    37    19    35    1
    38    19    36    1
    39    19    37    1
    40    31    38    1
    41    28    39    1
    42    22    40    1
    43     3    41    1
    44     8    42    1
    45     8    43    1
    46    20    44    1
    47    20    45    1
    48    16    46    1
    49    11    47    1
    50    27    48    1
    51     6    49    1
    52     5    50    1
@<TRIPOS>SUBSTRUCTURE
     1 CDA248      1 GROUP             0 B     CDA     0  
@<TRIPOS>MOLECULE
A:TRS702
    19    18     1     0     0
SMALL
NO_CHARGES
****
Generated from the CSD

@<TRIPOS>ATOM
     1 C       34.3471 -12.7410  29.8362   C.3       1 TRS702   0.0000
     2 C1      34.4843 -11.2241  29.7379   C.3       1 TRS702   0.0000
     3 C2      33.8335 -13.2983  28.5053   C.3       1 TRS702   0.0000
     4 C3      33.4982 -13.0982  31.0424   C.3       1 TRS702   0.0000
     5 N       35.6481 -13.3627  30.1539   N.3       1 TRS702   0.0000
     6 O1      35.1729 -10.7347  30.8815   O.3       1 TRS702   0.0000
     7 O2      32.6248 -12.6813  28.0762   O.3       1 TRS702   0.0000
     8 O3      33.2089 -14.4577  30.9407   O.3       1 TRS702   0.0000
     9 H1      36.0755 -11.1463  30.9256   H         1 TRS702   0.0000
    10 H2      34.0553 -14.9770  30.9384   H         1 TRS702   0.0000
    11 H3      33.4945 -10.7726  29.6896   H         1 TRS702   0.0000
    12 H4      35.0444 -10.9678  28.8398   H         1 TRS702   0.0000
    13 H5      32.5772 -12.5172  31.0383   H         1 TRS702   0.0000
    14 H6      34.0487 -12.8993  31.9607   H         1 TRS702   0.0000
    15 H7      33.6565 -14.3665  28.6210   H         1 TRS702   0.0000
    16 H8      34.5953 -13.1370  27.7439   H         1 TRS702   0.0000
    17 H9      35.9859 -13.0055  31.0419   H         1 TRS702   0.0000
    18 H10     35.5360 -14.3696  30.2149   H         1 TRS702   0.0000
    19 H11     32.7742 -11.7067  27.9586   H         1 TRS702   0.0000
@<TRIPOS>BOND
     1     1     2    1
     2     1     3    1
     3     1     4    1
     4     1     5    1
     5     2     6    1
     6     3     7    1
     7     4     8    1
     8     6     9    1
     9     8    10    1
    10     2    11    1
    11     2    12    1
    12     4    13    1
    13     4    14    1
    14     3    15    1
    15     3    16    1
    16     5    17    1
    17     5    18    1
    18     7    19    1
@<TRIPOS>SUBSTRUCTURE
     1 TRS702      1 GROUP             0 A     TRS     0  
@<TRIPOS>MOLECULE
A:TRS703
    19    18     1     0     0
SMALL
NO_CHARGES
****
Generated from the CSD

@<TRIPOS>ATOM
     1 C        5.8659 -16.6282  25.5259   C.3       1 TRS703   0.0000
     2 C1       5.3095 -15.3737  26.1881   C.3       1 TRS703   0.0000
     3 C2       5.3635 -16.8187  24.1043   C.3       1 TRS703   0.0000
     4 C3       5.4892 -17.8247  26.3760   C.3       1 TRS703   0.0000
     5 N        7.3256 -16.5614  25.3945   N.3       1 TRS703   0.0000
     6 O1       5.6345 -15.3354  27.5805   O.3       1 TRS703   0.0000
     7 O2       6.0130 -17.9606  23.5520   O.3       1 TRS703   0.0000
     8 O3       4.1214 -17.6577  26.6515   O.3       1 TRS703   0.0000
     9 H1       4.2264 -15.3635  26.0759   H         1 TRS703   0.0000
    10 H2       5.7332 -14.4970  25.7004   H         1 TRS703   0.0000
    11 H3       5.5980 -15.9373  23.5092   H         1 TRS703   0.0000
    12 H4       4.2858 -16.9753  24.1119   H         1 TRS703   0.0000
    13 H5       7.7443 -16.4701  26.3146   H         1 TRS703   0.0000
    14 H6       7.6645 -17.4092  24.9511   H         1 TRS703   0.0000
    15 H7       6.6214 -15.3400  27.6903   H         1 TRS703   0.0000
    16 H8       6.0672 -17.8359  27.2989   H         1 TRS703   0.0000
    17 H9       5.6595 -18.7513  25.8298   H         1 TRS703   0.0000
    18 H10      5.7987 -18.7606  24.0998   H         1 TRS703   0.0000
    19 H11      3.6121 -17.6383  25.7993   H         1 TRS703   0.0000
@<TRIPOS>BOND
     1     1     2    1
     2     1     3    1
     3     1     4    1
     4     1     5    1
     5     2     6    1
     6     3     7    1
     7     4     8    1
     8     2     9    1
     9     2    10    1
    10     3    11    1
    11     3    12    1
    12     5    13    1
    13     5    14    1
    14     6    15    1
    15     4    16    1
    16     4    17    1
    17     7    18    1
    18     8    19    1
@<TRIPOS>SUBSTRUCTURE
     1 TRS703      1 GROUP             0 A     TRS     0  
@<TRIPOS>MOLECULE
A:UNB401
    63    66     1     0     0
SMALL
USER_CHARGES
****
Generated from the CSD

@<TRIPOS>ATOM
     1 C1      20.7144 -16.6540  25.8104   C.ar      1 UNB401   0.0000
     2 C2      19.6782 -15.7079  25.8614   C.ar      1 UNB401   0.0000
     3 C3      22.0115 -16.2544  26.1946   C.ar      1 UNB401   0.0000
     4 C4      20.4522 -17.9867  25.3722   C.ar      1 UNB401   0.0000
     5 S5      18.0880 -16.2232  25.3230   S.o2      1 UNB401   0.0000
     6 C6      19.9437 -14.4171  26.2566   C.ar      1 UNB401   0.0000
     7 C7      22.2450 -14.9282  26.6185   C.ar      1 UNB401   0.0000
     8 C8      23.0461 -17.2225  26.1416   C.ar      1 UNB401   0.0000
     9 C9      21.4753 -18.8820  25.3261   C.ar      1 UNB401   0.0000
    10 N10     18.1789 -16.4997  23.6934   N.pl3     1 UNB401   0.0000
    11 O11     17.6796 -17.4517  25.9156   O.2       1 UNB401   0.0000
    12 O12     17.2756 -15.0387  25.4264   O.2       1 UNB401   0.0000
    13 C13     21.2308 -14.0187  26.6397   C.ar      1 UNB401   0.0000
    14 C14     22.7627 -18.4996  25.7112   C.ar      1 UNB401   0.0000
    15 C15     18.8815 -15.6056  22.8548   C.ar      1 UNB401   0.0000
    16 C16     18.2703 -14.4331  22.4082   C.ar      1 UNB401   0.0000
    17 C17     20.2011 -15.8739  22.4569   C.ar      1 UNB401   0.0000
    18 C18     18.9613 -13.5652  21.5755   C.ar      1 UNB401   0.0000
    19 O19     16.9947 -14.1559  22.7866   O.3       1 UNB401   0.0000
    20 C20     20.9072 -15.0167  21.6333   C.ar      1 UNB401   0.0000
    21 C21     20.2732 -13.8507  21.1775   C.ar      1 UNB401   0.0000
    22 C22     18.2624 -12.2914  21.0970   C.3       1 UNB401   0.0000
    23 C23     21.0316 -12.9145  20.2795   C.3       1 UNB401   0.0000
    24 C24     16.9630 -12.5950  20.3807   C.2       1 UNB401   0.0000
    25 N25     15.9114 -11.7843  20.6226   N.am      1 UNB401   0.0000
    26 O26     16.8796 -13.5301  19.6094   O.2       1 UNB401   0.0000
    27 C27     14.6094 -12.0069  19.9973   C.3       1 UNB401   0.0000
    28 C28     13.6393 -11.9158  21.1332   C.ar      1 UNB401   0.0000
    29 C29     13.0707 -10.7015  21.4864   C.ar      1 UNB401   0.0000
    30 C30     13.3237 -13.0484  21.8559   C.ar      1 UNB401   0.0000
    31 C31     12.1967 -10.6345  22.5594   C.ar      1 UNB401   0.0000
    32 C32     12.4434 -13.0056  22.9178   C.ar      1 UNB401   0.0000
    33 C33     11.8406 -11.7809  23.2606   C.ar      1 UNB401   0.0000
    34 C34     10.8878 -11.6985  24.3867   C.2       1 UNB401   0.0000
    35 N35     10.1938 -12.8345  24.7802   N.pl3     1 UNB401   0.0000
    36 N36     10.6799 -10.5620  25.0039   N.pl3     1 UNB401   1.0000
    37 H1      23.5663 -19.2335  25.6697   H         1 UNB401   0.0000
    38 H2      21.2902 -19.9004  24.9878   H         1 UNB401   0.0000
    39 H3      19.1346 -13.6884  26.2720   H         1 UNB401   0.0000
    40 H4      19.4462 -18.2830  25.0786   H         1 UNB401   0.0000
    41 H5      23.2444 -14.6296  26.9312   H         1 UNB401   0.0000
    42 H6      24.0595 -16.9576  26.4397   H         1 UNB401   0.0000
    43 H7      17.7273 -17.3163  23.2942   H         1 UNB401   0.0000
    44 H8      21.4190 -12.9924  26.9513   H         1 UNB401   0.0000
    45 H9      20.6832 -16.7851  22.8077   H         1 UNB401   0.0000
    46 H10     13.7801 -13.9984  21.5817   H         1 UNB401   0.0000
    47 H11     16.0279 -10.9993  21.2554   H         1 UNB401   0.0000
    48 H12     12.2178 -13.9084  23.4835   H         1 UNB401   0.0000
    49 H13     11.7836  -9.6719  22.8572   H         1 UNB401   0.0000
    50 H14      9.5375 -12.7861  25.5529   H         1 UNB401   0.0000
    51 H15     10.3427 -13.7136  24.2951   H         1 UNB401   0.0000
    52 H16     16.9494 -14.0928  23.7766   H         1 UNB401   0.0000
    53 H17     14.5674 -12.9901  19.5309   H         1 UNB401   0.0000
    54 H18     14.4032 -11.2417  19.2504   H         1 UNB401   0.0000
    55 H19     10.0230 -10.5168  25.7763   H         1 UNB401   0.0000
    56 H20     11.1756  -9.7266  24.7096   H         1 UNB401   0.0000
    57 H21     21.1196 -11.9416  20.7608   H         1 UNB401   0.0000
    58 H22     22.0256 -13.3176  20.0913   H         1 UNB401   0.0000
    59 H23     20.4992 -12.8059  19.3358   H         1 UNB401   0.0000
    60 H24     13.3106  -9.8019  20.9214   H         1 UNB401   0.0000
    61 H25     21.9329 -15.2415  21.3447   H         1 UNB401   0.0000
    62 H26     18.9251 -11.7615  20.4145   H         1 UNB401   0.0000
    63 H27     18.0501 -11.6612  21.9594   H         1 UNB401   0.0000
@<TRIPOS>BOND
     1     1     2   ar
     2     1     3   ar
     3     1     4   ar
     4     2     5    1
     5     2     6   ar
     6     3     7   ar
     7     3     8   ar
     8     4     9   ar
     9     5    10    1
    10     5    11    2
    11     5    12    2
    12     6    13   ar
    13     7    13   ar
    14     8    14   ar
    15     9    14   ar
    16    10    15    1
    17    15    16   ar
    18    15    17   ar
    19    16    18   ar
    20    16    19    1
    21    17    20   ar
    22    18    21   ar
    23    18    22    1
    24    20    21   ar
    25    21    23    1
    26    22    24    1
    27    24    25   am
    28    24    26    2
    29    25    27    1
    30    27    28    1
    31    28    29   ar
    32    28    30   ar
    33    29    31   ar
    34    30    32   ar
    35    31    33   ar
    36    32    33   ar
    37    33    34    1
    38    34    35    1
    39    34    36    2
    40    14    37    1
    41     9    38    1
    42     6    39    1
    43     4    40    1
    44     7    41    1
    45     8    42    1
    46    10    43    1
    47    13    44    1
    48    17    45    1
    49    30    46    1
    50    25    47    1
    51    32    48    1
    52    31    49    1
    53    35    50    1
    54    35    51    1
    55    19    52    1
    56    27    53    1
    57    27    54    1
    58    36    55    1
    59    36    56    1
    60    23    57    1
    61    23    58    1
    62    23    59    1
    63    29    60    1
    64    20    61    1
    65    22    62    1
    66    22    63    1
@<TRIPOS>SUBSTRUCTURE
     1 UNB401      1 GROUP             0 A     UNB     0  
